@<TRIPOS>MOLECULE
RES
14592 11904 1 0 1
SMALL
NO_CHARGES
@<TRIPOS>CRYSIN
   57.2860    57.2860    81.3120    90.0000    90.0000    90.0000  1  1
@<TRIPOS>ATOM
       1 CH3          2.5000    32.3777    67.0740 CH3           1 RES     
       2 CH3          1.9615    30.0997    66.8419 CH3           1 RES     
       3 CH3          0.4022    31.6101    67.1072 CH3           1 RES     
       4 NL           1.6025    31.3676    66.6059 NL            1 RES     
       5 CH2          1.3970    31.5652    65.2431 CH2           1 RES     
       6 CH2          2.8061    31.2759    64.6934 CH2           1 RES     
       7 OA           2.8047    31.4357    63.2170 OA            1 RES     
       8 P            2.4406    30.0198    62.5668 P             1 RES     
       9 OM           3.5890    28.9980    63.0107 OM            1 RES     
      10 OM           0.9751    29.6372    63.0824 OM            1 RES     
      11 OA           2.4291    30.1515    60.9722 OA            1 RES     
      12 CH2          2.0885    28.8223    60.4044 CH2           1 RES     
      13 CH1          2.6539    28.6238    59.1855 CH1           1 RES     
      14 OE           3.7428    27.9205    58.4924 OE            1 RES     
      15 C            3.7360    26.7826    59.4698 C             1 RES     
      16 O            2.9806    26.6995    60.4370 O             1 RES     
      17 CH2          4.6038    25.8514    58.8746 CH2           1 RES     
      18 CH2          5.2367    26.2640    57.5327 CH2           1 RES     
      19 CH2          5.9971    25.0665    56.9332 CH2           1 RES     
      20 CH2          6.6300    25.4791    55.5913 CH2           1 RES     
      21 CH2          7.3905    24.2817    54.9918 CH2           1 RES     
      22 CH2          8.0233    24.6943    53.6498 CH2           1 RES     
      23 CH2          8.7838    23.4968    53.0503 CH2           1 RES     
      24 CH2          9.4167    23.9095    51.7084 CH2           1 RES     
      25 CH2         10.1771    22.7120    51.1089 CH2           1 RES     
      26 CH2         10.8100    23.1246    49.7670 CH2           1 RES     
      27 CH2         11.5704    21.9271    49.1675 CH2           1 RES     
      28 CH2         12.2033    22.3398    47.8255 CH2           1 RES     
      29 CH2         12.9638    21.1423    47.2260 CH2           1 RES     
      30 CH2         13.5966    21.5549    45.8841 CH2           1 RES     
      31 CH2         14.3571    20.3574    45.2846 CH2           1 RES     
      32 CH2         14.9900    20.7701    43.9426 CH2           1 RES     
      33 CH3         15.7158    19.6270    43.3704 CH3           1 RES     
      34 CH2          3.0064    30.1176    59.3123 CH2           1 RES     
      35 OE           3.5155    30.4931    57.9916 OE            1 RES     
      36 C            3.8062    31.9370    58.2753 C             1 RES     
      37 O            3.6136    32.4867    59.3587 O             1 RES     
      38 CH2          4.4925    32.3524    57.1216 CH2           1 RES     
      39 CH2          4.6998    31.2893    56.0269 CH2           1 RES     
      40 CH2          5.6252    31.8523    54.9322 CH2           1 RES     
      41 CH2          5.8325    30.7892    53.8375 CH2           1 RES     
      42 CH2          6.7579    31.3522    52.7428 CH2           1 RES     
      43 CH2          6.9652    30.2891    51.6481 CH2           1 RES     
      44 CH2          7.8906    30.8521    50.5534 CH2           1 RES     
      45 CH2          8.0979    29.7889    49.4587 CH2           1 RES     
      46 CH2          9.0233    30.3520    48.3641 CH2           1 RES     
      47 CH2          9.2306    29.2888    47.2694 CH2           1 RES     
      48 CH2         10.1560    29.8519    46.1747 CH2           1 RES     
      49 CH2         10.3633    28.7887    45.0800 CH2           1 RES     
      50 CH2         11.2887    29.3517    43.9853 CH2           1 RES     
      51 CH2         11.4961    28.2886    42.8906 CH2           1 RES     
      52 CH2         12.4214    28.8516    41.7959 CH2           1 RES     
      53 CH2         12.6288    27.7885    40.7012 CH2           1 RES     
      54 CH3         13.5120    28.3259    39.6563 CH3           1 RES     
      55 CH3         54.7860    39.8471    67.0740 CH3           1 RES     
      56 CH3         55.0164    37.5177    66.8419 CH3           1 RES     
      57 CH3         53.0511    38.4399    67.1072 CH3           1 RES     
      58 NL          54.2651    38.6003    66.6059 NL            1 RES     
      59 CH2         54.0065    38.7205    65.2431 CH2           1 RES     
      60 CH2         55.4333    38.9044    64.6934 CH2           1 RES     
      61 OA          55.3801    39.0551    63.2170 OA            1 RES     
      62 P           55.4955    37.5978    62.5668 P             1 RES     
      63 OM          56.9135    37.0042    63.0107 OM            1 RES     
      64 OM          54.2337    36.7599    63.0824 OM            1 RES     
      65 OA          55.4419    37.7186    60.9722 OA            1 RES     
      66 CH2         55.5514    36.3508    60.4044 CH2           1 RES     
      67 CH1         56.1506    36.3467    59.1855 CH1           1 RES     
      68 OE          57.4089    36.0350    58.4924 OE            1 RES     
      69 C           57.7719    34.9566    59.4698 C             1 RES     
      70 O           57.0845    34.6328    60.4370 O             1 RES     
      71 CH2         58.8951    34.3577    58.8746 CH2           1 RES     
      72 CH2         59.3597    34.9535    57.5327 CH2           1 RES     
      73 CH2         60.4678    34.0678    56.9332 CH2           1 RES     
      74 CH2         60.9324    34.6636    55.5913 CH2           1 RES     
      75 CH2         62.0405    33.7780    54.9918 CH2           1 RES     
      76 CH2         62.5051    34.3738    53.6498 CH2           1 RES     
      77 CH2         63.6132    33.4881    53.0503 CH2           1 RES     
      78 CH2         64.0777    34.0839    51.7084 CH2           1 RES     
      79 CH2         65.1858    33.1983    51.1089 CH2           1 RES     
      80 CH2         65.6504    33.7941    49.7670 CH2           1 RES     
      81 CH2         66.7585    32.9084    49.1675 CH2           1 RES     
      82 CH2         67.2231    33.5042    47.8255 CH2           1 RES     
      83 CH2         68.3312    32.6186    47.2260 CH2           1 RES     
      84 CH2         68.7958    33.2144    45.8841 CH2           1 RES     
      85 CH2         69.9039    32.3287    45.2846 CH2           1 RES     
      86 CH2         70.3685    32.9245    43.9426 CH2           1 RES     
      87 CH3         71.4262    32.0792    43.3704 CH3           1 RES     
      88 CH2         55.9989    37.8739    59.3123 CH2           1 RES     
      89 OE          56.3585    38.3944    57.9916 OE            1 RES     
      90 C           56.1645    39.8545    58.2753 C             1 RES     
      91 O           55.8038    40.3118    59.3587 O             1 RES     
      92 CH2         56.6787    40.4702    57.1216 CH2           1 RES     
      93 CH2         57.2200    39.5321    56.0269 CH2           1 RES     
      94 CH2         57.9124    40.3651    54.9322 CH2           1 RES     
      95 CH2         58.4538    39.4269    53.8375 CH2           1 RES     
      96 CH2         59.1461    40.2599    52.7428 CH2           1 RES     
      97 CH2         59.6875    39.3217    51.6481 CH2           1 RES     
      98 CH2         60.3798    40.1547    50.5534 CH2           1 RES     
      99 CH2         60.9212    39.2165    49.4587 CH2           1 RES     
     100 CH2         61.6136    40.0495    48.3641 CH2           1 RES     
     101 CH2         62.1549    39.1114    47.2694 CH2           1 RES     
     102 CH2         62.8473    39.9444    46.1747 CH2           1 RES     
     103 CH2         63.3886    39.0062    45.0800 CH2           1 RES     
     104 CH2         64.0810    39.8392    43.9853 CH2           1 RES     
     105 CH2         64.6224    38.9010    42.8906 CH2           1 RES     
     106 CH2         65.3147    39.7340    41.7959 CH2           1 RES     
     107 CH2         65.8561    38.7958    40.7012 CH2           1 RES     
     108 CH3         66.5170    39.5910    39.6563 CH3           1 RES     
     109 CH3         17.4388    32.3777    67.0740 CH3           1 RES     
     110 CH3         17.1664    30.0528    66.8419 CH3           1 RES     
     111 CH3         15.4435    31.3735    67.1072 CH3           1 RES     
     112 NL          16.6637    31.2709    66.6059 NL            1 RES     
     113 CH2         16.4368    31.4436    65.2431 CH2           1 RES     
     114 CH2         17.8699    31.3185    64.6934 CH2           1 RES     
     115 OA          17.8501    31.4771    63.2170 OA            1 RES     
     116 P           17.6516    30.0287    62.5668 P             1 RES     
     117 OM          18.9100    29.1459    63.0107 OM            1 RES     
     118 OM          16.2399    29.4797    63.0824 OM            1 RES     
     119 OA          17.6250    30.1582    60.9722 OA            1 RES     
     120 CH2         17.4398    28.7986    60.4044 CH2           1 RES     
     121 CH1         18.0242    28.6665    59.1855 CH1           1 RES     
     122 OE          19.1870    28.0933    58.4924 OE            1 RES     
     123 C           19.3113    26.9623    59.4698 C             1 RES     
     124 O           18.5705    26.7927    60.4370 O             1 RES     
     125 CH2         20.2806    26.1372    58.8746 CH2           1 RES     
     126 CH2         20.8617    26.6200    57.5327 CH2           1 RES     
     127 CH2         21.7551    25.5182    56.9332 CH2           1 RES     
     128 CH2         22.3362    26.0009    55.5913 CH2           1 RES     
     129 CH2         23.2296    24.8991    54.9918 CH2           1 RES     
     130 CH2         23.8107    25.3819    53.6498 CH2           1 RES     
     131 CH2         24.7040    24.2800    53.0503 CH2           1 RES     
     132 CH2         25.2852    24.7628    51.7084 CH2           1 RES     
     133 CH2         26.1785    23.6609    51.1089 CH2           1 RES     
     134 CH2         26.7596    24.1437    49.7670 CH2           1 RES     
     135 CH2         27.6530    23.0418    49.1675 CH2           1 RES     
     136 CH2         28.2341    23.5246    47.8255 CH2           1 RES     
     137 CH2         29.1275    22.4227    47.2260 CH2           1 RES     
     138 CH2         29.7086    22.9055    45.8841 CH2           1 RES     
     139 CH2         30.6019    21.8037    45.2846 CH2           1 RES     
     140 CH2         31.1831    22.2865    43.9426 CH2           1 RES     
     141 CH3         32.0358    21.2347    43.3704 CH3           1 RES     
     142 CH2         18.2023    30.1910    59.3123 CH2           1 RES     
     143 OE          18.6648    30.6226    57.9916 OE            1 RES     
     144 C           18.7871    32.0905    58.2753 C             1 RES     
     145 O           18.5325    32.6142    59.3587 O             1 RES     
     146 CH2         19.4210    32.5822    57.1216 CH2           1 RES     
     147 CH2         19.7494    31.5500    56.0269 CH2           1 RES     
     148 CH2         20.6038    32.2159    54.9322 CH2           1 RES     
     149 CH2         20.9322    31.1837    53.8375 CH2           1 RES     
     150 CH2         21.7865    31.8496    52.7428 CH2           1 RES     
     151 CH2         22.1150    30.8175    51.6481 CH2           1 RES     
     152 CH2         22.9693    31.4833    50.5534 CH2           1 RES     
     153 CH2         23.2978    30.4512    49.4587 CH2           1 RES     
     154 CH2         24.1521    31.1171    48.3641 CH2           1 RES     
     155 CH2         24.4806    30.0849    47.2694 CH2           1 RES     
     156 CH2         25.3349    30.7508    46.1747 CH2           1 RES     
     157 CH2         25.6633    29.7186    45.0800 CH2           1 RES     
     158 CH2         26.5177    30.3845    43.9853 CH2           1 RES     
     159 CH2         26.8461    29.3524    42.8906 CH2           1 RES     
     160 CH2         27.7004    30.0183    41.7959 CH2           1 RES     
     161 CH2         28.0289    28.9861    40.7012 CH2           1 RES     
     162 CH3         28.8444    29.6217    39.6563 CH3           1 RES     
     163 CH3         32.3777    24.9083    67.0740 CH3           1 RES     
     164 CH3         33.1272    22.6907    66.8419 CH3           1 RES     
     165 CH3         31.0047    23.1462    67.1072 CH3           1 RES     
     166 NL          32.1512    23.5762    66.6059 NL            1 RES     
     167 CH2         31.8723    23.6350    65.2431 CH2           1 RES     
     168 CH2         33.2208    24.1357    64.6934 CH2           1 RES     
     169 OA          33.1350    24.2705    63.2170 OA            1 RES     
     170 P           33.5760    22.8767    62.5668 P             1 RES     
     171 OM          35.0912    22.6180    63.0107 OM            1 RES     
     172 OM          32.5355    21.7760    63.0824 OM            1 RES     
     173 OA          33.4965    22.9824    60.9722 OA            1 RES     
     174 CH2         33.9114    21.6744    60.4044 CH2           1 RES     
     175 CH1         34.4961    21.8054    59.1855 CH1           1 RES     
     176 OE          35.7923    21.7855    58.4924 OE            1 RES     
     177 C           36.3891    20.8166    59.4698 C             1 RES     
     178 O           35.7923    20.3462    60.4370 O             1 RES     
     179 CH2         37.6184    20.4862    58.8746 CH2           1 RES     
     180 CH2         37.9367    21.1714    57.5327 CH2           1 RES     
     181 CH2         39.2159    20.5583    56.9332 CH2           1 RES     
     182 CH2         39.5343    21.2435    55.5913 CH2           1 RES     
     183 CH2         40.8135    20.6304    54.9918 CH2           1 RES     
     184 CH2         41.1318    21.3155    53.6498 CH2           1 RES     
     185 CH2         42.4110    20.7025    53.0503 CH2           1 RES     
     186 CH2         42.7293    21.3876    51.7084 CH2           1 RES     
     187 CH2         44.0085    20.7745    51.1089 CH2           1 RES     
     188 CH2         44.3269    21.4597    49.7670 CH2           1 RES     
     189 CH2         45.6061    20.8466    49.1675 CH2           1 RES     
     190 CH2         45.9244    21.5318    47.8255 CH2           1 RES     
     191 CH2         47.2036    20.9187    47.2260 CH2           1 RES     
     192 CH2         47.5220    21.6038    45.8841 CH2           1 RES     
     193 CH2         48.8012    20.9908    45.2846 CH2           1 RES     
     194 CH2         49.1195    21.6759    43.9426 CH2           1 RES     
     195 CH3         50.3406    21.0907    43.3704 CH3           1 RES     
     196 CH2         34.0042    23.2592    59.3123 CH2           1 RES     
     197 OE          34.2372    23.8474    57.9916 OE            1 RES     
     198 C           33.7191    25.2262    58.2753 C             1 RES     
     199 O           33.2646    25.5904    59.3587 O             1 RES     
     200 CH2         34.0813    25.9420    57.1216 CH2           1 RES     
     201 CH2         34.8201    25.1499    56.0269 CH2           1 RES     
     202 CH2         35.3069    26.1176    54.9322 CH2           1 RES     
     203 CH2         36.0458    25.3255    53.8375 CH2           1 RES     
     204 CH2         36.5326    26.2931    52.7428 CH2           1 RES     
     205 CH2         37.2715    25.5011    51.6481 CH2           1 RES     
     206 CH2         37.7583    26.4687    50.5534 CH2           1 RES     
     207 CH2         38.4972    25.6767    49.4587 CH2           1 RES     
     208 CH2         38.9840    26.6443    48.3641 CH2           1 RES     
     209 CH2         39.7229    25.8523    47.2694 CH2           1 RES     
     210 CH2         40.2097    26.8199    46.1747 CH2           1 RES     
     211 CH2         40.9485    26.0279    45.0800 CH2           1 RES     
     212 CH2         41.4353    26.9955    43.9853 CH2           1 RES     
     213 CH2         42.1742    26.2035    42.8906 CH2           1 RES     
     214 CH2         42.6610    27.1711    41.7959 CH2           1 RES     
     215 CH2         43.3999    26.3791    40.7012 CH2           1 RES     
     216 CH3         43.8646    27.3027    39.6563 CH3           1 RES     
     217 CH3         47.3165    54.7860    67.0740 CH3           1 RES     
     218 CH3         47.7821    52.4920    66.8419 CH3           1 RES     
     219 CH3         45.7334    53.2100    67.1072 CH3           1 RES     
     220 NL          46.9248    53.4928    66.6059 NL            1 RES     
     221 CH2         46.6554    53.5861    65.2431 CH2           1 RES     
     222 CH2         48.0562    53.9138    64.6934 CH2           1 RES     
     223 OA          47.9879    54.0583    63.2170 OA            1 RES     
     224 P           48.2506    52.6202    62.5668 P             1 RES     
     225 OM          49.7215    52.1735    63.0107 OM            1 RES     
     226 OM          47.0803    51.6587    63.0824 OM            1 RES     
     227 OA          48.1850    52.7350    60.9722 OA            1 RES     
     228 CH2         48.4327    51.3854    60.4044 CH2           1 RES     
     229 CH1         49.0292    51.4420    59.1855 CH1           1 RES     
     230 OE          50.3126    51.2596    58.4924 OE            1 RES     
     231 C           50.7832    50.2236    59.4698 C             1 RES     
     232 O           50.1322    49.8317    60.4370 O             1 RES     
     233 CH2         51.9614    49.7417    58.8746 CH2           1 RES     
     234 CH2         52.3631    50.3815    57.5327 CH2           1 RES     
     235 CH2         53.5553    49.6129    56.9332 CH2           1 RES     
     236 CH2         53.9571    50.2527    55.5913 CH2           1 RES     
     237 CH2         55.1493    49.4841    54.9918 CH2           1 RES     
     238 CH2         55.5511    50.1239    53.6498 CH2           1 RES     
     239 CH2         56.7433    49.3553    53.0503 CH2           1 RES     
     240 CH2         57.1450    49.9951    51.7084 CH2           1 RES     
     241 CH2         58.3373    49.2264    51.1089 CH2           1 RES     
     242 CH2         58.7390    49.8663    49.7670 CH2           1 RES     
     243 CH2         59.9312    49.0976    49.1675 CH2           1 RES     
     244 CH2         60.3330    49.7375    47.8255 CH2           1 RES     
     245 CH2         61.5252    48.9688    47.2260 CH2           1 RES     
     246 CH2         61.9269    49.6087    45.8841 CH2           1 RES     
     247 CH2         63.1192    48.8400    45.2846 CH2           1 RES     
     248 CH2         63.5209    49.4798    43.9426 CH2           1 RES     
     249 CH3         64.6589    48.7461    43.3704 CH3           1 RES     
     250 CH2         48.7234    52.9460    59.3123 CH2           1 RES     
     251 OE          49.0283    53.5003    57.9916 OE            1 RES     
     252 C           48.6872    54.9332    58.2753 C             1 RES     
     253 O           48.2820    55.3515    59.3587 O             1 RES     
     254 CH2         49.1363    55.5979    57.1216 CH2           1 RES     
     255 CH2         49.7700    54.7195    56.0269 CH2           1 RES     
     256 CH2         50.3743    55.6184    54.9322 CH2           1 RES     
     257 CH2         51.0080    54.7400    53.8375 CH2           1 RES     
     258 CH2         51.6123    55.6389    52.7428 CH2           1 RES     
     259 CH2         52.2461    54.7605    51.6481 CH2           1 RES     
     260 CH2         52.8504    55.6594    50.5534 CH2           1 RES     
     261 CH2         53.4841    54.7810    49.4587 CH2           1 RES     
     262 CH2         54.0884    55.6800    48.3641 CH2           1 RES     
     263 CH2         54.7221    54.8015    47.2694 CH2           1 RES     
     264 CH2         55.3264    55.7005    46.1747 CH2           1 RES     
     265 CH2         55.9601    54.8221    45.0800 CH2           1 RES     
     266 CH2         56.5644    55.7210    43.9853 CH2           1 RES     
     267 CH2         57.1982    54.8426    42.8906 CH2           1 RES     
     268 CH2         57.8025    55.7415    41.7959 CH2           1 RES     
     269 CH2         58.4362    54.8631    40.7012 CH2           1 RES     
     270 CH3         59.0130    55.7212    39.6563 CH3           1 RES     
     271 CH3         24.9083     9.9694    67.0740 CH3           1 RES     
     272 CH3         25.0460     7.6327    66.8419 CH3           1 RES     
     273 CH3         23.1189     8.6322    67.1072 CH3           1 RES     
     274 NL          24.3383     8.7443    66.6059 NL            1 RES     
     275 CH2         24.0847     8.8746    65.2431 CH2           1 RES     
     276 CH2         25.5176     9.0017    64.6934 CH2           1 RES     
     277 OA          25.4704     9.1544    63.2170 OA            1 RES     
     278 P           25.5279     7.6937    62.5668 P             1 RES     
     279 OM          26.9212     7.0442    63.0107 OM            1 RES     
     280 OM          24.2338     6.9066    63.0824 OM            1 RES     
     281 OA          25.4791     7.8165    60.9722 OA            1 RES     
     282 CH2         25.5342     6.4455    60.4044 CH2           1 RES     
     283 CH1         26.1328     6.4175    59.1855 CH1           1 RES     
     284 OE          27.3777     6.0562    58.4924 OE            1 RES     
     285 C           27.6976     4.9642    59.4698 C             1 RES     
     286 O           26.9979     4.6679    60.4370 O             1 RES     
     287 CH2         28.7962     4.3211    58.8746 CH2           1 RES     
     288 CH2         29.2840     4.8980    57.5327 CH2           1 RES     
     289 CH2         30.3561     3.9690    56.9332 CH2           1 RES     
     290 CH2         30.8440     4.5459    55.5913 CH2           1 RES     
     291 CH2         31.9160     3.6170    54.9918 CH2           1 RES     
     292 CH2         32.4039     4.1938    53.6498 CH2           1 RES     
     293 CH2         33.4760     3.2649    53.0503 CH2           1 RES     
     294 CH2         33.9638     3.8417    51.7084 CH2           1 RES     
     295 CH2         35.0359     2.9128    51.1089 CH2           1 RES     
     296 CH2         35.5238     3.4897    49.7670 CH2           1 RES     
     297 CH2         36.5958     2.5607    49.1675 CH2           1 RES     
     298 CH2         37.0837     3.1376    47.8255 CH2           1 RES     
     299 CH2         38.1557     2.2087    47.2260 CH2           1 RES     
     300 CH2         38.6436     2.7855    45.8841 CH2           1 RES     
     301 CH2         39.7157     1.8566    45.2846 CH2           1 RES     
     302 CH2         40.2035     2.4334    43.9426 CH2           1 RES     
     303 CH3         41.2269     1.5467    43.3704 CH3           1 RES     
     304 CH2         26.0419     7.9496    59.3123 CH2           1 RES     
     305 OE          26.4218     8.4554    57.9916 OE            1 RES     
     306 C           26.2860     9.9221    58.2753 C             1 RES     
     307 O           25.9438    10.3933    59.3587 O             1 RES     
     308 CH2         26.8242    10.5169    57.1216 CH2           1 RES     
     309 CH2         27.3279     9.5580    56.0269 CH2           1 RES     
     310 CH2         28.0528    10.3628    54.9322 CH2           1 RES     
     311 CH2         28.5565     9.4039    53.8375 CH2           1 RES     
     312 CH2         29.2814    10.2087    52.7428 CH2           1 RES     
     313 CH2         29.7850     9.2498    51.6481 CH2           1 RES     
     314 CH2         30.5099    10.0546    50.5534 CH2           1 RES     
     315 CH2         31.0136     9.0957    49.4587 CH2           1 RES     
     316 CH2         31.7385     9.9005    48.3641 CH2           1 RES     
     317 CH2         32.2422     8.9416    47.2694 CH2           1 RES     
     318 CH2         32.9671     9.7464    46.1747 CH2           1 RES     
     319 CH2         33.4708     8.7875    45.0800 CH2           1 RES     
     320 CH2         34.1956     9.5923    43.9853 CH2           1 RES     
     321 CH2         34.6993     8.6334    42.8906 CH2           1 RES     
     322 CH2         35.4242     9.4382    41.7959 CH2           1 RES     
     323 CH2         35.9279     8.4793    40.7012 CH2           1 RES     
     324 CH3         36.6198     9.2476    39.6563 CH3           1 RES     
     325 CH3         47.3165    39.8471    67.0740 CH3           1 RES     
     326 CH3         48.6147    37.8993    66.8419 CH3           1 RES     
     327 CH3         46.4467    37.7896    67.1072 CH3           1 RES     
     328 NL          47.4428    38.5018    66.6059 NL            1 RES     
     329 CH2         47.1581    38.4864    65.2431 CH2           1 RES     
     330 CH2         48.3310    39.3192    64.6934 CH2           1 RES     
     331 OA          48.2132    39.4273    63.2170 OA            1 RES     
     332 P           49.0000    38.1952    62.5668 P             1 RES     
     333 OM          50.5306    38.3377    63.0107 OM            1 RES     
     334 OM          48.2801    36.8626    63.0824 OM            1 RES     
     335 OA          48.8959    38.2766    60.9722 OA            1 RES     
     336 CH2         49.6354    37.1208    60.4044 CH2           1 RES     
     337 CH1         50.1662    37.3987    59.1855 CH1           1 RES     
     338 OE          51.4234    37.7151    58.4924 OE            1 RES     
     339 C           52.2506    36.9338    59.4698 C             1 RES     
     340 O           51.7961    36.3249    60.4370 O             1 RES     
     341 CH2         53.5236    36.9331    58.8746 CH2           1 RES     
     342 CH2         53.6536    37.6773    57.5327 CH2           1 RES     
     343 CH2         55.0480    37.4164    56.9332 CH2           1 RES     
     344 CH2         55.1780    38.1606    55.5913 CH2           1 RES     
     345 CH2         56.5723    37.8997    54.9918 CH2           1 RES     
     346 CH2         56.7024    38.6439    53.6498 CH2           1 RES     
     347 CH2         58.0967    38.3830    53.0503 CH2           1 RES     
     348 CH2         58.2268    39.1272    51.7084 CH2           1 RES     
     349 CH2         59.6211    38.8663    51.1089 CH2           1 RES     
     350 CH2         59.7512    39.6106    49.7670 CH2           1 RES     
     351 CH2         61.1455    39.3496    49.1675 CH2           1 RES     
     352 CH2         61.2756    40.0939    47.8255 CH2           1 RES     
     353 CH2         62.6699    39.8330    47.2260 CH2           1 RES     
     354 CH2         62.7999    40.5772    45.8841 CH2           1 RES     
     355 CH2         64.1943    40.3163    45.2846 CH2           1 RES     
     356 CH2         64.3243    41.0605    43.9426 CH2           1 RES     
     357 CH3         65.6553    40.8115    43.3704 CH3           1 RES     
     358 CH2         49.3146    38.6755    59.3123 CH2           1 RES     
     359 OE          49.3873    39.3039    57.9916 OE            1 RES     
     360 C           48.5298    40.5015    58.2753 C             1 RES     
     361 O           47.9966    40.7357    59.3587 O             1 RES     
     362 CH2         48.6943    41.2867    57.1216 CH2           1 RES     
     363 CH2         49.6131    40.7130    56.0269 CH2           1 RES     
     364 CH2         49.8327    41.7737    54.9322 CH2           1 RES     
     365 CH2         50.7515    41.2000    53.8375 CH2           1 RES     
     366 CH2         50.9711    42.2607    52.7428 CH2           1 RES     
     367 CH2         51.8899    41.6871    51.6481 CH2           1 RES     
     368 CH2         52.1095    42.7477    50.5534 CH2           1 RES     
     369 CH2         53.0283    42.1741    49.4587 CH2           1 RES     
     370 CH2         53.2479    43.2347    48.3641 CH2           1 RES     
     371 CH2         54.1667    42.6611    47.2694 CH2           1 RES     
     372 CH2         54.3863    43.7217    46.1747 CH2           1 RES     
     373 CH2         55.3051    43.1481    45.0800 CH2           1 RES     
     374 CH2         55.5247    44.2087    43.9853 CH2           1 RES     
     375 CH2         56.4435    43.6351    42.8906 CH2           1 RES     
     376 CH2         56.6631    44.6958    41.7959 CH2           1 RES     
     377 CH2         57.5819    44.1221    40.7012 CH2           1 RES     
     378 CH3         57.7915    45.1345    39.6563 CH3           1 RES     
     379 CH3         47.3165    17.4388    67.0740 CH3           1 RES     
     380 CH3         47.9839    15.1952    66.8419 CH3           1 RES     
     381 CH3         45.8796    15.7285    67.1072 CH3           1 RES     
     382 NL          47.0412    16.1160    66.6059 NL            1 RES     
     383 CH2         46.7646    16.1850    65.2431 CH2           1 RES     
     384 CH2         48.1307    16.6358    64.6934 CH2           1 RES     
     385 OA          48.0499    16.7737    63.2170 OA            1 RES     
     386 P           48.4392    15.3646    62.5668 P             1 RES     
     387 OM          49.9439    15.0503    63.0107 OM            1 RES     
     388 OM          47.3589    14.3029    63.0824 OM            1 RES     
     389 OA          48.3637    15.4731    60.9722 OA            1 RES     
     390 CH2         48.7302    14.1508    60.4044 CH2           1 RES     
     391 CH1         49.3194    14.2602    59.1855 CH1           1 RES     
     392 OE          50.6139    14.1925    58.4924 OE            1 RES     
     393 C           51.1746    13.2023    59.4698 C             1 RES     
     394 O           50.5609    12.7542    60.4370 O             1 RES     
     395 CH2         52.3909    12.8269    58.8746 CH2           1 RES     
     396 CH2         52.7343    13.4999    57.5327 CH2           1 RES     
     397 CH2         53.9900    12.8402    56.9332 CH2           1 RES     
     398 CH2         54.3334    13.5131    55.5913 CH2           1 RES     
     399 CH2         55.5891    12.8534    54.9918 CH2           1 RES     
     400 CH2         55.9325    13.5264    53.6498 CH2           1 RES     
     401 CH2         57.1883    12.8666    53.0503 CH2           1 RES     
     402 CH2         57.5316    13.5396    51.7084 CH2           1 RES     
     403 CH2         58.7874    12.8799    51.1089 CH2           1 RES     
     404 CH2         59.1307    13.5528    49.7670 CH2           1 RES     
     405 CH2         60.3865    12.8931    49.1675 CH2           1 RES     
     406 CH2         60.7298    13.5661    47.8255 CH2           1 RES     
     407 CH2         61.9856    12.9063    47.2260 CH2           1 RES     
     408 CH2         62.3289    13.5793    45.8841 CH2           1 RES     
     409 CH2         63.5847    12.9195    45.2846 CH2           1 RES     
     410 CH2         63.9281    13.5925    43.9426 CH2           1 RES     
     411 CH3         65.1267    12.9628    43.3704 CH3           1 RES     
     412 CH2         48.8812    15.7311    59.3123 CH2           1 RES     
     413 OE          49.1357    16.3102    57.9916 OE            1 RES     
     414 C           48.6687    17.7072    58.2753 C             1 RES     
     415 O           48.2280    18.0879    59.3587 O             1 RES     
     416 CH2         49.0570    18.4091    57.1216 CH2           1 RES     
     417 CH2         49.7662    17.5905    56.0269 CH2           1 RES     
     418 CH2         50.2883    18.5395    54.9322 CH2           1 RES     
     419 CH2         50.9975    17.7208    53.8375 CH2           1 RES     
     420 CH2         51.5196    18.6699    52.7428 CH2           1 RES     
     421 CH2         52.2289    17.8512    51.6481 CH2           1 RES     
     422 CH2         52.7509    18.8002    50.5534 CH2           1 RES     
     423 CH2         53.4602    17.9816    49.4587 CH2           1 RES     
     424 CH2         53.9823    18.9306    48.3641 CH2           1 RES     
     425 CH2         54.6915    18.1119    47.2694 CH2           1 RES     
     426 CH2         55.2136    19.0610    46.1747 CH2           1 RES     
     427 CH2         55.9228    18.2423    45.0800 CH2           1 RES     
     428 CH2         56.4449    19.1913    43.9853 CH2           1 RES     
     429 CH2         57.1541    18.3726    42.8906 CH2           1 RES     
     430 CH2         57.6762    19.3217    41.7959 CH2           1 RES     
     431 CH2         58.3854    18.5030    40.7012 CH2           1 RES     
     432 CH3         58.8838    19.4089    39.6563 CH3           1 RES     
     433 CH3          9.9694     9.9694    67.0740 CH3           1 RES     
     434 CH3         10.1777     7.6379    66.8419 CH3           1 RES     
     435 CH3          8.2213     8.5788    67.1072 CH3           1 RES     
     436 NL           9.4367     8.7276    66.6059 NL            1 RES     
     437 CH2          9.1793     8.8503    65.2431 CH2           1 RES     
     438 CH2         10.6077     9.0206    64.6934 CH2           1 RES     
     439 OA          10.5560     9.1718    63.2170 OA            1 RES     
     440 P           10.6575     7.7134    62.5668 P             1 RES     
     441 OM          12.0698     7.1064    63.0107 OM            1 RES     
     442 OM           9.3878     6.8876    63.0824 OM            1 RES     
     443 OA          10.6050     7.8348    60.9722 OA            1 RES     
     444 CH2         10.7015     6.4660    60.4044 CH2           1 RES     
     445 CH1         11.3007     6.4561    59.1855 CH1           1 RES     
     446 OE          12.5560     6.1326    58.4924 OE            1 RES     
     447 C           12.9087     5.0508    59.4698 C             1 RES     
     448 O           12.2182     4.7335    60.4370 O             1 RES     
     449 CH2         14.0262     4.4411    58.8746 CH2           1 RES     
     450 CH2         14.4964     5.0325    57.5327 CH2           1 RES     
     451 CH2         15.5960     4.1364    56.9332 CH2           1 RES     
     452 CH2         16.0663     4.7277    55.5913 CH2           1 RES     
     453 CH2         17.1659     3.8316    54.9918 CH2           1 RES     
     454 CH2         17.6361     4.4229    53.6498 CH2           1 RES     
     455 CH2         18.7357     3.5268    53.0503 CH2           1 RES     
     456 CH2         19.2060     4.1181    51.7084 CH2           1 RES     
     457 CH2         20.3056     3.2220    51.1089 CH2           1 RES     
     458 CH2         20.7758     3.8133    49.7670 CH2           1 RES     
     459 CH2         21.8754     2.9172    49.1675 CH2           1 RES     
     460 CH2         22.3457     3.5085    47.8255 CH2           1 RES     
     461 CH2         23.4453     2.6124    47.2260 CH2           1 RES     
     462 CH2         23.9155     3.2037    45.8841 CH2           1 RES     
     463 CH2         25.0151     2.3076    45.2846 CH2           1 RES     
     464 CH2         25.4854     2.8989    43.9426 CH2           1 RES     
     465 CH3         26.5350     2.0435    43.3704 CH3           1 RES     
     466 CH2         11.1635     7.9848    59.3123 CH2           1 RES     
     467 OE          11.5280     8.5018    57.9916 OE            1 RES     
     468 C           11.3479     9.9637    58.2753 C             1 RES     
     469 O           10.9916    10.4244    59.3587 O             1 RES     
     470 CH2         11.8680    10.5745    57.1216 CH2           1 RES     
     471 CH2         12.4004     9.6312    56.0269 CH2           1 RES     
     472 CH2         13.1006    10.4576    54.9322 CH2           1 RES     
     473 CH2         13.6330     9.5143    53.8375 CH2           1 RES     
     474 CH2         14.3333    10.3407    52.7428 CH2           1 RES     
     475 CH2         14.8657     9.3974    51.6481 CH2           1 RES     
     476 CH2         15.5660    10.2238    50.5534 CH2           1 RES     
     477 CH2         16.0984     9.2805    49.4587 CH2           1 RES     
     478 CH2         16.7986    10.1069    48.3641 CH2           1 RES     
     479 CH2         17.3310     9.1636    47.2694 CH2           1 RES     
     480 CH2         18.0313     9.9900    46.1747 CH2           1 RES     
     481 CH2         18.5637     9.0467    45.0800 CH2           1 RES     
     482 CH2         19.2640     9.8731    43.9853 CH2           1 RES     
     483 CH2         19.7964     8.9298    42.8906 CH2           1 RES     
     484 CH2         20.4966     9.7562    41.7959 CH2           1 RES     
     485 CH2         21.0290     8.8129    40.7012 CH2           1 RES     
     486 CH3         21.6974     9.6017    39.6563 CH3           1 RES     
     487 CH3         17.4388    39.8471    67.0740 CH3           1 RES     
     488 CH3         17.3195    37.5094    66.8419 CH3           1 RES     
     489 CH3         15.5137    38.7141    67.1072 CH3           1 RES     
     490 NL          16.7380    38.6919    66.6059 NL            1 RES     
     491 CH2         16.5002    38.8492    65.2431 CH2           1 RES     
     492 CH2         17.9384    38.8185    64.6934 CH2           1 RES     
     493 OA          17.9083    38.9754    63.2170 OA            1 RES     
     494 P           17.8053    37.5172    62.5668 P             1 RES     
     495 OM          19.1189    36.7189    63.0107 OM            1 RES     
     496 OM          16.4327    36.8767    63.0824 OM            1 RES     
     497 OA          17.7702    37.6446    60.9722 OA            1 RES     
     498 CH2         17.6747    36.2758    60.4044 CH2           1 RES     
     499 CH1         18.2666    36.1824    59.1855 CH1           1 RES     
     500 OE          19.4644    35.6867    58.4924 OE            1 RES     
     501 C           19.6627    34.5663    59.4698 C             1 RES     
     502 O           18.9346    34.3485    60.4370 O             1 RES     
     503 CH2         20.6841    33.8066    58.8746 CH2           1 RES     
     504 CH2         21.2323    34.3265    57.5327 CH2           1 RES     
     505 CH2         22.1960    33.2857    56.9332 CH2           1 RES     
     506 CH2         22.7442    33.8056    55.5913 CH2           1 RES     
     507 CH2         23.7079    32.7647    54.9918 CH2           1 RES     
     508 CH2         24.2561    33.2846    53.6498 CH2           1 RES     
     509 CH2         25.2199    32.2437    53.0503 CH2           1 RES     
     510 CH2         25.7680    32.7636    51.7084 CH2           1 RES     
     511 CH2         26.7318    31.7227    51.1089 CH2           1 RES     
     512 CH2         27.2800    32.2426    49.7670 CH2           1 RES     
     513 CH2         28.2437    31.2018    49.1675 CH2           1 RES     
     514 CH2         28.7919    31.7217    47.8255 CH2           1 RES     
     515 CH2         29.7556    30.6808    47.2260 CH2           1 RES     
     516 CH2         30.3038    31.2007    45.8841 CH2           1 RES     
     517 CH2         31.2676    30.1598    45.2846 CH2           1 RES     
     518 CH2         31.8157    30.6797    43.9426 CH2           1 RES     
     519 CH3         32.7357    29.6862    43.3704 CH3           1 RES     
     520 CH2         18.3442    37.7152    59.3123 CH2           1 RES     
     521 OE          18.7773    38.1763    57.9916 OE            1 RES     
     522 C           18.8031    39.6490    58.2753 C             1 RES     
     523 O           18.5146    40.1549    59.3587 O             1 RES     
     524 CH2         19.4033    40.1812    57.1216 CH2           1 RES     
     525 CH2         19.7988    39.1729    56.0269 CH2           1 RES     
     526 CH2         20.6076    39.8934    54.9322 CH2           1 RES     
     527 CH2         21.0031    38.8850    53.8375 CH2           1 RES     
     528 CH2         21.8118    39.6055    52.7428 CH2           1 RES     
     529 CH2         22.2073    38.5972    51.6481 CH2           1 RES     
     530 CH2         23.0161    39.3177    50.5534 CH2           1 RES     
     531 CH2         23.4116    38.3093    49.4587 CH2           1 RES     
     532 CH2         24.2204    39.0298    48.3641 CH2           1 RES     
     533 CH2         24.6159    38.0214    47.2694 CH2           1 RES     
     534 CH2         25.4246    38.7420    46.1747 CH2           1 RES     
     535 CH2         25.8201    37.7336    45.0800 CH2           1 RES     
     536 CH2         26.6289    38.4541    43.9853 CH2           1 RES     
     537 CH2         27.0244    37.4457    42.8906 CH2           1 RES     
     538 CH2         27.8332    38.1663    41.7959 CH2           1 RES     
     539 CH2         28.2287    37.1579    40.7012 CH2           1 RES     
     540 CH3         29.0007    37.8457    39.6563 CH3           1 RES     
     541 CH3          9.9694    32.3777    67.0740 CH3           1 RES     
     542 CH3         10.9042    30.2317    66.8419 CH3           1 RES     
     543 CH3          8.7507    30.5056    67.1072 CH3           1 RES     
     544 NL           9.8567    31.0312    66.6059 NL            1 RES     
     545 CH2          9.5737    31.0661    65.2431 CH2           1 RES     
     546 CH2         10.8750    31.6794    64.6934 CH2           1 RES     
     547 OA          10.7781    31.8065    63.2170 OA            1 RES     
     548 P           11.3356    30.4550    62.5668 P             1 RES     
     549 OM          12.8673    30.3257    63.0107 OM            1 RES     
     550 OM          10.3922    29.2701    63.0824 OM            1 RES     
     551 OA          11.2474    30.5536    60.9722 OA            1 RES     
     552 CH2         11.7718    29.2855    60.4044 CH2           1 RES     
     553 CH1         12.3433    29.4656    59.1855 CH1           1 RES     
     554 OE          13.6365    29.5556    58.4924 OE            1 RES     
     555 C           14.3132    28.6409    59.4698 C             1 RES     
     556 O           13.7585    28.1215    60.4370 O             1 RES     
     557 CH2         15.5661    28.4159    58.8746 CH2           1 RES     
     558 CH2         15.8252    29.1256    57.5327 CH2           1 RES     
     559 CH2         17.1518    28.6231    56.9332 CH2           1 RES     
     560 CH2         17.4109    29.3328    55.5913 CH2           1 RES     
     561 CH2         18.7375    28.8304    54.9918 CH2           1 RES     
     562 CH2         18.9966    29.5401    53.6498 CH2           1 RES     
     563 CH2         20.3232    29.0376    53.0503 CH2           1 RES     
     564 CH2         20.5823    29.7473    51.7084 CH2           1 RES     
     565 CH2         21.9088    29.2449    51.1089 CH2           1 RES     
     566 CH2         22.1680    29.9546    49.7670 CH2           1 RES     
     567 CH2         23.4945    29.4521    49.1675 CH2           1 RES     
     568 CH2         23.7536    30.1618    47.8255 CH2           1 RES     
     569 CH2         25.0802    29.6594    47.2260 CH2           1 RES     
     570 CH2         25.3393    30.3691    45.8841 CH2           1 RES     
     571 CH2         26.6659    29.8666    45.2846 CH2           1 RES     
     572 CH2         26.9250    30.5763    43.9426 CH2           1 RES     
     573 CH3         28.1913    30.0967    43.3704 CH3           1 RES     
     574 CH2         11.7298    30.8725    59.3123 CH2           1 RES     
     575 OE          11.9121    31.4783    57.9916 OE            1 RES     
     576 C           11.2790    32.8082    58.2753 C             1 RES     
     577 O           10.7953    33.1326    59.3587 O             1 RES     
     578 CH2         11.5792    33.5521    57.1216 CH2           1 RES     
     579 CH2         12.3826    32.8256    56.0269 CH2           1 RES     
     580 CH2         12.7856    33.8310    54.9322 CH2           1 RES     
     581 CH2         13.5890    33.1044    53.8375 CH2           1 RES     
     582 CH2         13.9920    34.1098    52.7428 CH2           1 RES     
     583 CH2         14.7954    33.3833    51.6481 CH2           1 RES     
     584 CH2         15.1984    34.3887    50.5534 CH2           1 RES     
     585 CH2         16.0017    33.6622    49.4587 CH2           1 RES     
     586 CH2         16.4047    34.6676    48.3641 CH2           1 RES     
     587 CH2         17.2081    33.9410    47.2694 CH2           1 RES     
     588 CH2         17.6111    34.9465    46.1747 CH2           1 RES     
     589 CH2         18.4145    34.2199    45.0800 CH2           1 RES     
     590 CH2         18.8175    35.2253    43.9853 CH2           1 RES     
     591 CH2         19.6209    34.4988    42.8906 CH2           1 RES     
     592 CH2         20.0239    35.5042    41.7959 CH2           1 RES     
     593 CH2         20.8273    34.7777    40.7012 CH2           1 RES     
     594 CH3         21.2120    35.7374    39.6563 CH3           1 RES     
     595 CH3          9.9694    47.3165    67.0740 CH3           1 RES     
     596 CH3          9.7832    44.9832    66.8419 CH3           1 RES     
     597 CH3          8.0126    46.2392    67.1072 CH3           1 RES     
     598 NL           9.2358    46.1819    66.6059 NL            1 RES     
     599 CH2          9.0026    46.3460    65.2431 CH2           1 RES     
     600 CH2         10.4393    46.2740    64.6934 CH2           1 RES     
     601 OA          10.4137    46.4318    63.2170 OA            1 RES     
     602 P           10.2689    44.9770    62.5668 P             1 RES     
     603 OM          11.5592    44.1415    63.0107 OM            1 RES     
     604 OM           8.8786    44.3762    63.0824 OM            1 RES     
     605 OA          10.2375    45.1055    60.9722 OA            1 RES     
     606 CH2         10.1028    43.7399    60.4044 CH2           1 RES     
     607 CH1         10.6918    43.6296    59.1855 CH1           1 RES     
     608 OE          11.8749    43.0998    58.4924 OE            1 RES     
     609 C           12.0410    41.9742    59.4698 C             1 RES     
     610 O           11.3070    41.7773    60.4370 O             1 RES     
     611 CH2         13.0402    41.1855    58.8746 CH2           1 RES     
     612 CH2         13.6031    41.6895    57.5327 CH2           1 RES     
     613 CH2         14.5366    40.6215    56.9332 CH2           1 RES     
     614 CH2         15.0994    41.1254    55.5913 CH2           1 RES     
     615 CH2         16.0330    40.0574    54.9918 CH2           1 RES     
     616 CH2         16.5958    40.5613    53.6498 CH2           1 RES     
     617 CH2         17.5293    39.4933    53.0503 CH2           1 RES     
     618 CH2         18.0922    39.9973    51.7084 CH2           1 RES     
     619 CH2         19.0257    38.9292    51.1089 CH2           1 RES     
     620 CH2         19.5886    39.4332    49.7670 CH2           1 RES     
     621 CH2         20.5221    38.3651    49.1675 CH2           1 RES     
     622 CH2         21.0850    38.8691    47.8255 CH2           1 RES     
     623 CH2         22.0185    37.8010    47.2260 CH2           1 RES     
     624 CH2         22.5813    38.3050    45.8841 CH2           1 RES     
     625 CH2         23.5149    37.2369    45.2846 CH2           1 RES     
     626 CH2         24.0777    37.7409    43.9426 CH2           1 RES     
     627 CH3         24.9688    36.7214    43.3704 CH3           1 RES     
     628 CH2         10.8133    45.1596    59.3123 CH2           1 RES     
     629 OE          11.2594    45.6081    57.9916 OE            1 RES     
     630 C           11.3274    47.0794    58.2753 C             1 RES     
     631 O           11.0535    47.5934    59.3587 O             1 RES     
     632 CH2         11.9426    47.5942    57.1216 CH2           1 RES     
     633 CH2         12.3091    46.5749    56.0269 CH2           1 RES     
     634 CH2         13.1382    47.2720    54.9322 CH2           1 RES     
     635 CH2         13.5046    46.2527    53.8375 CH2           1 RES     
     636 CH2         14.3337    46.9497    52.7428 CH2           1 RES     
     637 CH2         14.7001    45.9304    51.6481 CH2           1 RES     
     638 CH2         15.5292    46.6275    50.5534 CH2           1 RES     
     639 CH2         15.8957    45.6082    49.4587 CH2           1 RES     
     640 CH2         16.7247    46.3052    48.3641 CH2           1 RES     
     641 CH2         17.0912    45.2860    47.2694 CH2           1 RES     
     642 CH2         17.9203    45.9830    46.1747 CH2           1 RES     
     643 CH2         18.2867    44.9637    45.0800 CH2           1 RES     
     644 CH2         19.1158    45.6608    43.9853 CH2           1 RES     
     645 CH2         19.4822    44.6415    42.8906 CH2           1 RES     
     646 CH2         20.3113    45.3385    41.7959 CH2           1 RES     
     647 CH2         20.6778    44.3192    40.7012 CH2           1 RES     
     648 CH3         21.4692    44.9846    39.6563 CH3           1 RES     
     649 CH3         32.3777    54.7860    67.0740 CH3           1 RES     
     650 CH3         33.0563    52.5457    66.8419 CH3           1 RES     
     651 CH3         30.9493    53.0685    67.1072 CH3           1 RES     
     652 NL          32.1090    53.4617    66.6059 NL            1 RES     
     653 CH2         31.8320    53.5294    65.2431 CH2           1 RES     
     654 CH2         33.1958    53.9870    64.6934 CH2           1 RES     
     655 OA          33.1144    54.1245    63.2170 OA            1 RES     
     656 P           33.5107    52.7173    62.5668 P             1 RES     
     657 OM          35.0170    52.4105    63.0107 OM            1 RES     
     658 OM          32.4358    51.6503    63.0824 OM            1 RES     
     659 OA          33.4346    52.8254    60.9722 OA            1 RES     
     660 CH2         33.8078    51.5050    60.4044 CH2           1 RES     
     661 CH1         34.3964    51.6173    59.1855 CH1           1 RES     
     662 OE          35.6913    51.5561    58.4924 OE            1 RES     
     663 C           36.2569    50.5688    59.4698 C             1 RES     
     664 O           35.6455    50.1176    60.4370 O             1 RES     
     665 CH2         37.4751    50.1995    58.8746 CH2           1 RES     
     666 CH2         37.8150    50.8742    57.5327 CH2           1 RES     
     667 CH2         39.0741    50.2207    56.9332 CH2           1 RES     
     668 CH2         39.4141    50.8954    55.5913 CH2           1 RES     
     669 CH2         40.6731    50.2419    54.9918 CH2           1 RES     
     670 CH2         41.0131    50.9166    53.6498 CH2           1 RES     
     671 CH2         42.2721    50.2632    53.0503 CH2           1 RES     
     672 CH2         42.6121    50.9378    51.7084 CH2           1 RES     
     673 CH2         43.8712    50.2844    51.1089 CH2           1 RES     
     674 CH2         44.2112    50.9591    49.7670 CH2           1 RES     
     675 CH2         45.4702    50.3056    49.1675 CH2           1 RES     
     676 CH2         45.8102    50.9803    47.8255 CH2           1 RES     
     677 CH2         47.0692    50.3268    47.2260 CH2           1 RES     
     678 CH2         47.4092    51.0015    45.8841 CH2           1 RES     
     679 CH2         48.6682    50.3481    45.2846 CH2           1 RES     
     680 CH2         49.0082    51.0227    43.9426 CH2           1 RES     
     681 CH3         50.2100    50.3990    43.3704 CH3           1 RES     
     682 CH2         33.9509    53.0860    59.3123 CH2           1 RES     
     683 OE          34.2025    53.6665    57.9916 OE            1 RES     
     684 C           33.7285    55.0610    58.2753 C             1 RES     
     685 O           33.2859    55.4396    59.3587 O             1 RES     
     686 CH2         34.1133    55.7650    57.1216 CH2           1 RES     
     687 CH2         34.8266    54.9498    56.0269 CH2           1 RES     
     688 CH2         35.3439    55.9015    54.9322 CH2           1 RES     
     689 CH2         36.0572    55.0863    53.8375 CH2           1 RES     
     690 CH2         36.5746    56.0380    52.7428 CH2           1 RES     
     691 CH2         37.2879    55.2229    51.6481 CH2           1 RES     
     692 CH2         37.8052    56.1745    50.5534 CH2           1 RES     
     693 CH2         38.5185    55.3594    49.4587 CH2           1 RES     
     694 CH2         39.0359    56.3110    48.3641 CH2           1 RES     
     695 CH2         39.7492    55.4959    47.2694 CH2           1 RES     
     696 CH2         40.2665    56.4475    46.1747 CH2           1 RES     
     697 CH2         40.9798    55.6324    45.0800 CH2           1 RES     
     698 CH2         41.4972    56.5841    43.9853 CH2           1 RES     
     699 CH2         42.2105    55.7689    42.8906 CH2           1 RES     
     700 CH2         42.7278    56.7206    41.7959 CH2           1 RES     
     701 CH2         43.4411    55.9055    40.7012 CH2           1 RES     
     702 CH3         43.9349    56.8139    39.6563 CH3           1 RES     
     703 CH3          2.5000    54.7860    67.0740 CH3           1 RES     
     704 CH3          1.9827    52.5031    66.8419 CH3           1 RES     
     705 CH3          0.4094    53.9989    67.1072 CH3           1 RES     
     706 NL           1.6119    53.7676    66.6059 NL            1 RES     
     707 CH2          1.4046    53.9633    65.2431 CH2           1 RES     
     708 CH2          2.8163    53.6870    64.6934 CH2           1 RES     
     709 OA           2.8134    53.8468    63.2170 OA            1 RES     
     710 P            2.4626    52.4277    62.5668 P             1 RES     
     711 OM           3.6203    51.4165    63.0107 OM            1 RES     
     712 OM           1.0007    52.0314    63.0824 OM            1 RES     
     713 OA           2.4498    52.5593    60.9722 OA            1 RES     
     714 CH2          2.1216    51.2269    60.4044 CH2           1 RES     
     715 CH1          2.6888    51.0337    59.1855 CH1           1 RES     
     716 OE           3.7842    50.3405    58.4924 OE            1 RES     
     717 C            3.7879    49.2026    59.4698 C             1 RES     
     718 O            3.0334    49.1125    60.4370 O             1 RES     
     719 CH2          4.6644    48.2795    58.8746 CH2           1 RES     
     720 CH2          5.2934    48.6980    57.5327 CH2           1 RES     
     721 CH2          6.0650    47.5076    56.9332 CH2           1 RES     
     722 CH2          6.6940    47.9261    55.5913 CH2           1 RES     
     723 CH2          7.4655    46.7358    54.9918 CH2           1 RES     
     724 CH2          8.0945    47.1542    53.6498 CH2           1 RES     
     725 CH2          8.8661    45.9639    53.0503 CH2           1 RES     
     726 CH2          9.4951    46.3824    51.7084 CH2           1 RES     
     727 CH2         10.2666    45.1920    51.1089 CH2           1 RES     
     728 CH2         10.8956    45.6105    49.7670 CH2           1 RES     
     729 CH2         11.6672    44.4202    49.1675 CH2           1 RES     
     730 CH2         12.2962    44.8387    47.8255 CH2           1 RES     
     731 CH2         13.0678    43.6483    47.2260 CH2           1 RES     
     732 CH2         13.6968    44.0668    45.8841 CH2           1 RES     
     733 CH2         14.4683    42.8765    45.2846 CH2           1 RES     
     734 CH2         15.0973    43.2949    43.9426 CH2           1 RES     
     735 CH3         15.8338    42.1587    43.3704 CH3           1 RES     
     736 CH2          3.0274    52.5306    59.3123 CH2           1 RES     
     737 OE           3.5330    52.9109    57.9916 OE            1 RES     
     738 C            3.8102    54.3575    58.2753 C             1 RES     
     739 O            3.6125    54.9053    59.3587 O             1 RES     
     740 CH2          4.4926    54.7792    57.1216 CH2           1 RES     
     741 CH2          4.7099    53.7181    56.0269 CH2           1 RES     
     742 CH2          5.6299    54.2897    54.9322 CH2           1 RES     
     743 CH2          5.8472    53.2285    53.8375 CH2           1 RES     
     744 CH2          6.7672    53.8001    52.7428 CH2           1 RES     
     745 CH2          6.9845    52.7389    51.6481 CH2           1 RES     
     746 CH2          7.9045    53.3105    50.5534 CH2           1 RES     
     747 CH2          8.1218    52.2494    49.4587 CH2           1 RES     
     748 CH2          9.0418    52.8210    48.3641 CH2           1 RES     
     749 CH2          9.2591    51.7598    47.2694 CH2           1 RES     
     750 CH2         10.1791    52.3314    46.1747 CH2           1 RES     
     751 CH2         10.3964    51.2702    45.0800 CH2           1 RES     
     752 CH2         11.3164    51.8418    43.9853 CH2           1 RES     
     753 CH2         11.5337    50.7807    42.8906 CH2           1 RES     
     754 CH2         12.4537    51.3523    41.7959 CH2           1 RES     
     755 CH2         12.6710    50.2911    40.7012 CH2           1 RES     
     756 CH3         13.5492    50.8367    39.6563 CH3           1 RES     
     757 CH3         32.3777    39.8471    67.0740 CH3           1 RES     
     758 CH3         33.2865    37.6900    66.8419 CH3           1 RES     
     759 CH3         31.1364    37.9899    67.1072 CH3           1 RES     
     760 NL          32.2487    38.5021    66.6059 NL            1 RES     
     761 CH2         31.9662    38.5404    65.2431 CH2           1 RES     
     762 CH2         33.2748    39.1379    64.6934 CH2           1 RES     
     763 OA          33.1794    39.2662    63.2170 OA            1 RES     
     764 P           33.7205    37.9081    62.5668 P             1 RES     
     765 OM          35.2506    37.7602    63.0107 OM            1 RES     
     766 OM          32.7628    36.7347    63.0824 OM            1 RES     
     767 OA          33.6335    38.0077    60.9722 OA            1 RES     
     768 CH2         34.1425    36.7334    60.4044 CH2           1 RES     
     769 CH1         34.7162    36.9066    59.1855 CH1           1 RES     
     770 OE          36.0104    36.9809    58.4924 OE            1 RES     
     771 C           36.6760    36.0580    59.4698 C             1 RES     
     772 O           36.1150    35.5454    60.4370 O             1 RES     
     773 CH2         37.9260    35.8179    58.8746 CH2           1 RES     
     774 CH2         38.1937    36.5244    57.5327 CH2           1 RES     
     775 CH2         39.5141    36.0059    56.9332 CH2           1 RES     
     776 CH2         39.7818    36.7124    55.5913 CH2           1 RES     
     777 CH2         41.1022    36.1940    54.9918 CH2           1 RES     
     778 CH2         41.3699    36.9005    53.6498 CH2           1 RES     
     779 CH2         42.6903    36.3820    53.0503 CH2           1 RES     
     780 CH2         42.9579    37.0885    51.7084 CH2           1 RES     
     781 CH2         44.2783    36.5701    51.1089 CH2           1 RES     
     782 CH2         44.5460    37.2766    49.7670 CH2           1 RES     
     783 CH2         45.8664    36.7581    49.1675 CH2           1 RES     
     784 CH2         46.1341    37.4646    47.8255 CH2           1 RES     
     785 CH2         47.4545    36.9462    47.2260 CH2           1 RES     
     786 CH2         47.7222    37.6527    45.8841 CH2           1 RES     
     787 CH2         49.0426    37.1342    45.2846 CH2           1 RES     
     788 CH2         49.3102    37.8407    43.9426 CH2           1 RES     
     789 CH3         50.5706    37.3459    43.3704 CH3           1 RES     
     790 CH2         34.1198    38.3207    59.3123 CH2           1 RES     
     791 OE          34.3094    38.9242    57.9916 OE            1 RES     
     792 C           33.6924    40.2617    58.2753 C             1 RES     
     793 O           33.2127    40.5920    59.3587 O             1 RES     
     794 CH2         34.0016    41.0020    57.1216 CH2           1 RES     
     795 CH2         34.7961    40.2658    56.0269 CH2           1 RES     
     796 CH2         35.2113    41.2662    54.9322 CH2           1 RES     
     797 CH2         36.0058    40.5300    53.8375 CH2           1 RES     
     798 CH2         36.4209    41.5305    52.7428 CH2           1 RES     
     799 CH2         37.2154    40.7943    51.6481 CH2           1 RES     
     800 CH2         37.6306    41.7947    50.5534 CH2           1 RES     
     801 CH2         38.4251    41.0585    49.4587 CH2           1 RES     
     802 CH2         38.8403    42.0590    48.3641 CH2           1 RES     
     803 CH2         39.6348    41.3228    47.2694 CH2           1 RES     
     804 CH2         40.0499    42.3232    46.1747 CH2           1 RES     
     805 CH2         40.8444    41.5870    45.0800 CH2           1 RES     
     806 CH2         41.2596    42.5875    43.9853 CH2           1 RES     
     807 CH2         42.0541    41.8513    42.8906 CH2           1 RES     
     808 CH2         42.4693    42.8517    41.7959 CH2           1 RES     
     809 CH2         43.2638    42.1155    40.7012 CH2           1 RES     
     810 CH3         43.6601    43.0705    39.6563 CH3           1 RES     
     811 CH3         54.7860    17.4388    67.0740 CH3           1 RES     
     812 CH3         55.2001    15.1350    66.8419 CH3           1 RES     
     813 CH3         53.1680    15.8986    67.1072 CH3           1 RES     
     814 NL          54.3655    16.1547    66.6059 NL            1 RES     
     815 CH2         54.0982    16.2540    65.2431 CH2           1 RES     
     816 CH2         55.5059    16.5504    64.6934 CH2           1 RES     
     817 OA          55.4409    16.6964    63.2170 OA            1 RES     
     818 P           55.6714    15.2528    62.5668 P             1 RES     
     819 OM          57.1319    14.7733    63.0107 OM            1 RES     
     820 OM          54.4799    14.3176    63.0824 OM            1 RES     
     821 OA          55.6084    15.3690    60.9722 OA            1 RES     
     822 CH2         55.8258    14.0141    60.4044 CH2           1 RES     
     823 CH1         56.4235    14.0575    59.1855 CH1           1 RES     
     824 OE          57.7025    13.8465    58.4924 OE            1 RES     
     825 C           58.1498    12.8002    59.4698 C             1 RES     
     826 O           57.4902    12.4229    60.4370 O             1 RES     
     827 CH2         59.3170    12.2921    58.8746 CH2           1 RES     
     828 CH2         59.7329    12.9228    57.5327 CH2           1 RES     
     829 CH2         60.9077    12.1277    56.9332 CH2           1 RES     
     830 CH2         61.3236    12.7584    55.5913 CH2           1 RES     
     831 CH2         62.4984    11.9633    54.9918 CH2           1 RES     
     832 CH2         62.9143    12.5940    53.6498 CH2           1 RES     
     833 CH2         64.0890    11.7989    53.0503 CH2           1 RES     
     834 CH2         64.5050    12.4296    51.7084 CH2           1 RES     
     835 CH2         65.6797    11.6345    51.1089 CH2           1 RES     
     836 CH2         66.0957    12.2652    49.7670 CH2           1 RES     
     837 CH2         67.2704    11.4702    49.1675 CH2           1 RES     
     838 CH2         67.6864    12.1009    47.8255 CH2           1 RES     
     839 CH2         68.8611    11.3058    47.2260 CH2           1 RES     
     840 CH2         69.2771    11.9365    45.8841 CH2           1 RES     
     841 CH2         70.4518    11.1414    45.2846 CH2           1 RES     
     842 CH2         70.8678    11.7721    43.9426 CH2           1 RES     
     843 CH3         71.9891    11.0131    43.3704 CH3           1 RES     
     844 CH2         56.1514    15.5679    59.3123 CH2           1 RES     
     845 OE          56.4686    16.1152    57.9916 OE            1 RES     
     846 C           56.1596    17.5554    58.2753 C             1 RES     
     847 O           55.7638    17.9827    59.3587 O             1 RES     
     848 CH2         56.6234    18.2099    57.1216 CH2           1 RES     
     849 CH2         57.2373    17.3176    56.0269 CH2           1 RES     
     850 CH2         57.8616    18.2028    54.9322 CH2           1 RES     
     851 CH2         58.4755    17.3104    53.8375 CH2           1 RES     
     852 CH2         59.0997    18.1956    52.7428 CH2           1 RES     
     853 CH2         59.7137    17.3033    51.6481 CH2           1 RES     
     854 CH2         60.3379    18.1885    50.5534 CH2           1 RES     
     855 CH2         60.9519    17.2961    49.4587 CH2           1 RES     
     856 CH2         61.5761    18.1814    48.3641 CH2           1 RES     
     857 CH2         62.1900    17.2890    47.2694 CH2           1 RES     
     858 CH2         62.8143    18.1742    46.1747 CH2           1 RES     
     859 CH2         63.4282    17.2819    45.0800 CH2           1 RES     
     860 CH2         64.0524    18.1671    43.9853 CH2           1 RES     
     861 CH2         64.6664    17.2747    42.8906 CH2           1 RES     
     862 CH2         65.2906    18.1599    41.7959 CH2           1 RES     
     863 CH2         65.9046    17.2676    40.7012 CH2           1 RES     
     864 CH3         66.5004    18.1126    39.6563 CH3           1 RES     
     865 CH3         39.8471    47.3165    67.0740 CH3           1 RES     
     866 CH3         40.7712    45.1659    66.8419 CH3           1 RES     
     867 CH3         38.6191    45.4506    67.1072 CH3           1 RES     
     868 NL          39.7277    45.9706    66.6059 NL            1 RES     
     869 CH2         39.4449    46.0070    65.2431 CH2           1 RES     
     870 CH2         40.7492    46.6137    64.6934 CH2           1 RES     
     871 OA          40.6529    46.7413    63.2170 OA            1 RES     
     872 P           41.2037    45.3871    62.5668 P             1 RES     
     873 OM          42.7347    45.2501    63.0107 OM            1 RES     
     874 OM          40.2543    44.2069    63.0824 OM            1 RES     
     875 OA          41.1160    45.4861    60.9722 OA            1 RES     
     876 CH2         41.6340    44.2154    60.4044 CH2           1 RES     
     877 CH1         42.2064    44.3927    59.1855 CH1           1 RES     
     878 OE          43.5001    44.4762    58.4924 OE            1 RES     
     879 C           44.1722    43.5581    59.4698 C             1 RES     
     880 O           43.6149    43.0415    60.4370 O             1 RES     
     881 CH2         45.4240    43.3268    58.8746 CH2           1 RES     
     882 CH2         45.6866    44.0352    57.5327 CH2           1 RES     
     883 CH2         47.0107    43.5262    56.9332 CH2           1 RES     
     884 CH2         47.2733    44.2345    55.5913 CH2           1 RES     
     885 CH2         48.5974    43.7255    54.9918 CH2           1 RES     
     886 CH2         48.8600    44.4339    53.6498 CH2           1 RES     
     887 CH2         50.1841    43.9248    53.0503 CH2           1 RES     
     888 CH2         50.4467    44.6332    51.7084 CH2           1 RES     
     889 CH2         51.7707    44.1242    51.1089 CH2           1 RES     
     890 CH2         52.0334    44.8325    49.7670 CH2           1 RES     
     891 CH2         53.3574    44.3235    49.1675 CH2           1 RES     
     892 CH2         53.6201    45.0319    47.8255 CH2           1 RES     
     893 CH2         54.9441    44.5228    47.2260 CH2           1 RES     
     894 CH2         55.2068    45.2312    45.8841 CH2           1 RES     
     895 CH2         56.5308    44.7222    45.2846 CH2           1 RES     
     896 CH2         56.7935    45.4305    43.9426 CH2           1 RES     
     897 CH3         58.0573    44.9446    43.3704 CH3           1 RES     
     898 CH2         41.6000    45.8026    59.3123 CH2           1 RES     
     899 OE          41.7853    46.4074    57.9916 OE            1 RES     
     900 C           41.1588    47.7405    58.2753 C             1 RES     
     901 O           40.6768    48.0673    59.3587 O             1 RES     
     902 CH2         41.4628    48.4829    57.1216 CH2           1 RES     
     903 CH2         42.2625    47.7524    56.0269 CH2           1 RES     
     904 CH2         42.6705    48.7557    54.9322 CH2           1 RES     
     905 CH2         43.4703    48.0252    53.8375 CH2           1 RES     
     906 CH2         43.8783    49.0286    52.7428 CH2           1 RES     
     907 CH2         44.6780    48.2980    51.6481 CH2           1 RES     
     908 CH2         45.0860    49.3014    50.5534 CH2           1 RES     
     909 CH2         45.8858    48.5709    49.4587 CH2           1 RES     
     910 CH2         46.2938    49.5743    48.3641 CH2           1 RES     
     911 CH2         47.0935    48.8437    47.2694 CH2           1 RES     
     912 CH2         47.5016    49.8471    46.1747 CH2           1 RES     
     913 CH2         48.3013    49.1166    45.0800 CH2           1 RES     
     914 CH2         48.7093    50.1200    43.9853 CH2           1 RES     
     915 CH2         49.5090    49.3894    42.8906 CH2           1 RES     
     916 CH2         49.9171    50.3928    41.7959 CH2           1 RES     
     917 CH2         50.7168    49.6623    40.7012 CH2           1 RES     
     918 CH3         51.1063    50.6200    39.6563 CH3           1 RES     
     919 CH3         39.8471     9.9694    67.0740 CH3           1 RES     
     920 CH3         40.1957     7.6548    66.8419 CH3           1 RES     
     921 CH3         38.1861     8.4757    67.1072 CH3           1 RES     
     922 NL          39.3904     8.6977    66.6059 NL            1 RES     
     923 CH2         39.1260     8.8046    65.2431 CH2           1 RES     
     924 CH2         40.5416     9.0609    64.6934 CH2           1 RES     
     925 OA          40.4807     9.2087    63.2170 OA            1 RES     
     926 P           40.6702     7.7591    62.5668 P             1 RES     
     927 OM          42.1165     7.2384    63.0107 OM            1 RES     
     928 OM          39.4526     6.8581    63.0824 OM            1 RES     
     929 OA          40.6105     7.8770    60.9722 OA            1 RES     
     930 CH2         40.7894     6.5166    60.4044 CH2           1 RES     
     931 CH1         41.3880     6.5429    59.1855 CH1           1 RES     
     932 OE          42.6606     6.2957    58.4924 OE            1 RES     
     933 C           43.0780     5.2372    59.4698 C             1 RES     
     934 O           42.4079     4.8788    60.4370 O             1 RES     
     935 CH2         44.2302     4.6962    58.8746 CH2           1 RES     
     936 CH2         44.6639     5.3148    57.5327 CH2           1 RES     
     937 CH2         45.8156     4.4867    56.9332 CH2           1 RES     
     938 CH2         46.2493     5.1053    55.5913 CH2           1 RES     
     939 CH2         47.4010     4.2772    54.9918 CH2           1 RES     
     940 CH2         47.8347     4.8959    53.6498 CH2           1 RES     
     941 CH2         48.9864     4.0678    53.0503 CH2           1 RES     
     942 CH2         49.4201     4.6864    51.7084 CH2           1 RES     
     943 CH2         50.5718     3.8583    51.1089 CH2           1 RES     
     944 CH2         51.0055     4.4770    49.7670 CH2           1 RES     
     945 CH2         52.1572     3.6489    49.1675 CH2           1 RES     
     946 CH2         52.5909     4.2675    47.8255 CH2           1 RES     
     947 CH2         53.7426     3.4394    47.2260 CH2           1 RES     
     948 CH2         54.1762     4.0580    45.8841 CH2           1 RES     
     949 CH2         55.3280     3.2299    45.2846 CH2           1 RES     
     950 CH2         55.7616     3.8486    43.9426 CH2           1 RES     
     951 CH3         56.8610     3.0581    43.3704 CH3           1 RES     
     952 CH2         41.1589     8.0605    59.3123 CH2           1 RES     
     953 OE          41.4915     8.5986    57.9916 OE            1 RES     
     954 C           41.2235    10.0469    58.2753 C             1 RES     
     955 O           40.8400    10.4853    59.3587 O             1 RES     
     956 CH2         41.7057    10.6880    57.1216 CH2           1 RES     
     957 CH2         42.2941     9.7786    56.0269 CH2           1 RES     
     958 CH2         42.9432    10.6458    54.9322 CH2           1 RES     
     959 CH2         43.5315     9.7363    53.8375 CH2           1 RES     
     960 CH2         44.1806    10.6035    52.7428 CH2           1 RES     
     961 CH2         44.7690     9.6941    51.6481 CH2           1 RES     
     962 CH2         45.4181    10.5612    50.5534 CH2           1 RES     
     963 CH2         46.0065     9.6518    49.4587 CH2           1 RES     
     964 CH2         46.6556    10.5189    48.3641 CH2           1 RES     
     965 CH2         47.2440     9.6095    47.2694 CH2           1 RES     
     966 CH2         47.8930    10.4767    46.1747 CH2           1 RES     
     967 CH2         48.4814     9.5672    45.0800 CH2           1 RES     
     968 CH2         49.1305    10.4344    43.9853 CH2           1 RES     
     969 CH2         49.7189     9.5250    42.8906 CH2           1 RES     
     970 CH2         50.3680    10.3921    41.7959 CH2           1 RES     
     971 CH2         50.9564     9.4827    40.7012 CH2           1 RES     
     972 CH3         51.5760    10.3104    39.6563 CH3           1 RES     
     973 CH3          9.9694    39.8471    67.0740 CH3           1 RES     
     974 CH3          9.7413    37.5175    66.8419 CH3           1 RES     
     975 CH3          7.9935    38.8051    67.1072 CH3           1 RES     
     976 NL           9.2155    38.7258    66.6059 NL            1 RES     
     977 CH2          8.9853    38.8941    65.2431 CH2           1 RES     
     978 CH2         10.4205    38.7963    64.6934 CH2           1 RES     
     979 OA          10.3977    38.9545    63.2170 OA            1 RES     
     980 P           10.2269    37.5026    62.5668 P             1 RES     
     981 OM          11.5019    36.6440    63.0107 OM            1 RES     
     982 OM           8.8260    36.9268    63.0824 OM            1 RES     
     983 OA          10.1978    37.6316    60.9722 OA            1 RES     
     984 CH2         10.0386    36.2687    60.4044 CH2           1 RES     
     985 CH1         10.6255    36.1478    59.1855 CH1           1 RES     
     986 OE          11.7989    35.5969    58.4924 OE            1 RES     
     987 C           11.9448    34.4684    59.4698 C             1 RES     
     988 O           11.2074    34.2848    60.4370 O             1 RES     
     989 CH2         12.9297    33.6620    58.8746 CH2           1 RES     
     990 CH2         13.5015    34.1558    57.5327 CH2           1 RES     
     991 CH2         14.4157    33.0711    56.9332 CH2           1 RES     
     992 CH2         14.9875    33.5649    55.5913 CH2           1 RES     
     993 CH2         15.9017    32.4803    54.9918 CH2           1 RES     
     994 CH2         16.4735    32.9740    53.6498 CH2           1 RES     
     995 CH2         17.3877    31.8894    53.0503 CH2           1 RES     
     996 CH2         17.9595    32.3832    51.7084 CH2           1 RES     
     997 CH2         18.8737    31.2985    51.1089 CH2           1 RES     
     998 CH2         19.4455    31.7923    49.7670 CH2           1 RES     
     999 CH2         20.3597    30.7077    49.1675 CH2           1 RES     
    1000 CH2         20.9315    31.2015    47.8255 CH2           1 RES     
    1001 CH2         21.8457    30.1168    47.2260 CH2           1 RES     
    1002 CH2         22.4175    30.6106    45.8841 CH2           1 RES     
    1003 CH2         23.3317    29.5260    45.2846 CH2           1 RES     
    1004 CH2         23.9035    30.0198    43.9426 CH2           1 RES     
    1005 CH3         24.7762    28.9844    43.3704 CH3           1 RES     
    1006 CH2         10.7744    37.6753    59.3123 CH2           1 RES     
    1007 OE          11.2286    38.1158    57.9916 OE            1 RES     
    1008 C           11.3229    39.5857    58.2753 C             1 RES     
    1009 O           11.0583    40.1045    59.3587 O             1 RES     
    1010 CH2         11.9473    40.0893    57.1216 CH2           1 RES     
    1011 CH2         12.2954    39.0636    56.0269 CH2           1 RES     
    1012 CH2         13.1368    39.7457    54.9322 CH2           1 RES     
    1013 CH2         13.4849    38.7200    53.8375 CH2           1 RES     
    1014 CH2         14.3264    39.4020    52.7428 CH2           1 RES     
    1015 CH2         14.6745    38.3763    51.6481 CH2           1 RES     
    1016 CH2         15.5159    39.0584    50.5534 CH2           1 RES     
    1017 CH2         15.8640    38.0327    49.4587 CH2           1 RES     
    1018 CH2         16.7055    38.7147    48.3641 CH2           1 RES     
    1019 CH2         17.0536    37.6890    47.2694 CH2           1 RES     
    1020 CH2         17.8950    38.3711    46.1747 CH2           1 RES     
    1021 CH2         18.2431    37.3453    45.0800 CH2           1 RES     
    1022 CH2         19.0846    38.0274    43.9853 CH2           1 RES     
    1023 CH2         19.4327    37.0017    42.8906 CH2           1 RES     
    1024 CH2         20.2741    37.6837    41.7959 CH2           1 RES     
    1025 CH2         20.6222    36.6580    40.7012 CH2           1 RES     
    1026 CH3         21.4254    37.3091    39.6563 CH3           1 RES     
    1027 CH3          2.5000    17.4388    67.0740 CH3           1 RES     
    1028 CH3          2.6613    15.1036    66.8419 CH3           1 RES     
    1029 CH3          0.7243    16.0836    67.1072 CH3           1 RES     
    1030 NL           1.9425    16.2080    66.6059 NL            1 RES     
    1031 CH2          1.6876    16.3358    65.2431 CH2           1 RES     
    1032 CH2          3.1191    16.4774    64.6934 CH2           1 RES     
    1033 OA           3.0704    16.6296    63.2170 OA            1 RES     
    1034 P            3.1426    15.1695    62.5668 P             1 RES     
    1035 OM           4.5424    14.5342    63.0107 OM            1 RES     
    1036 OM           1.8566    14.3694    63.0824 OM            1 RES     
    1037 OA           3.0926    15.2918    60.9722 OA            1 RES     
    1038 CH2          3.1615    13.9214    60.4044 CH2           1 RES     
    1039 CH1          3.7604    13.8995    59.1855 CH1           1 RES     
    1040 OE           5.0089    13.5508    58.4924 OE            1 RES     
    1041 C            5.3399    12.4621    59.4698 C             1 RES     
    1042 O            4.6431    12.1588    60.4370 O             1 RES     
    1043 CH2          6.4448    11.8302    58.8746 CH2           1 RES     
    1044 CH2          6.9269    12.4119    57.5327 CH2           1 RES     
    1045 CH2          8.0083    11.4939    56.9332 CH2           1 RES     
    1046 CH2          8.4903    12.0757    55.5913 CH2           1 RES     
    1047 CH2          9.5717    11.1576    54.9918 CH2           1 RES     
    1048 CH2         10.0537    11.7394    53.6498 CH2           1 RES     
    1049 CH2         11.1351    10.8213    53.0503 CH2           1 RES     
    1050 CH2         11.6171    11.4031    51.7084 CH2           1 RES     
    1051 CH2         12.6985    10.4851    51.1089 CH2           1 RES     
    1052 CH2         13.1805    11.0668    49.7670 CH2           1 RES     
    1053 CH2         14.2619    10.1488    49.1675 CH2           1 RES     
    1054 CH2         14.7439    10.7306    47.8255 CH2           1 RES     
    1055 CH2         15.8253     9.8125    47.2260 CH2           1 RES     
    1056 CH2         16.3073    10.3943    45.8841 CH2           1 RES     
    1057 CH2         17.3887     9.4762    45.2846 CH2           1 RES     
    1058 CH2         17.8707    10.0580    43.9426 CH2           1 RES     
    1059 CH3         18.9030     9.1817    43.3704 CH3           1 RES     
    1060 CH2          3.6540    15.4306    59.3123 CH2           1 RES     
    1061 OE           4.0288    15.9402    57.9916 OE            1 RES     
    1062 C            3.8781    17.4054    58.2753 C             1 RES     
    1063 O            3.5312    17.8732    59.3587 O             1 RES     
    1064 CH2          4.4103    18.0057    57.1216 CH2           1 RES     
    1065 CH2          4.9237    17.0519    56.0269 CH2           1 RES     
    1066 CH2          5.6404    17.8640    54.9322 CH2           1 RES     
    1067 CH2          6.1537    16.9102    53.8375 CH2           1 RES     
    1068 CH2          6.8705    17.7224    52.7428 CH2           1 RES     
    1069 CH2          7.3838    16.7686    51.6481 CH2           1 RES     
    1070 CH2          8.1005    17.5807    50.5534 CH2           1 RES     
    1071 CH2          8.6139    16.6269    49.4587 CH2           1 RES     
    1072 CH2          9.3306    17.4391    48.3641 CH2           1 RES     
    1073 CH2          9.8439    16.4853    47.2694 CH2           1 RES     
    1074 CH2         10.5607    17.2974    46.1747 CH2           1 RES     
    1075 CH2         11.0740    16.3436    45.0800 CH2           1 RES     
    1076 CH2         11.7907    17.1558    43.9853 CH2           1 RES     
    1077 CH2         12.3041    16.2020    42.8906 CH2           1 RES     
    1078 CH2         13.0208    17.0141    41.7959 CH2           1 RES     
    1079 CH2         13.5341    16.0603    40.7012 CH2           1 RES     
    1080 CH3         14.2183    16.8355    39.6563 CH3           1 RES     
    1081 CH3         32.3777     9.9694    67.0740 CH3           1 RES     
    1082 CH3         32.8697     7.6809    66.8419 CH3           1 RES     
    1083 CH3         30.8129     8.3753    67.1072 CH3           1 RES     
    1084 NL          32.0010     8.6718    66.6059 NL            1 RES     
    1085 CH2         31.7305     8.7620    65.2431 CH2           1 RES     
    1086 CH2         33.1273     9.1058    64.6934 CH2           1 RES     
    1087 OA          33.0574     9.2496    63.2170 OA            1 RES     
    1088 P           33.3368     7.8146    62.5668 P             1 RES     
    1089 OM          34.8127     7.3850    63.0107 OM            1 RES     
    1090 OM          32.1776     6.8396    63.0824 OM            1 RES     
    1091 OA          33.2698     7.9286    60.9722 OA            1 RES     
    1092 CH2         33.5331     6.5819    60.4044 CH2           1 RES     
    1093 CH1         34.1289     6.6455    59.1855 CH1           1 RES     
    1094 OE          35.4144     6.4780    58.4924 OE            1 RES     
    1095 C           35.8969     5.4475    59.4698 C             1 RES     
    1096 O           35.2504     5.0480    60.4370 O             1 RES     
    1097 CH2         37.0805     4.9792    58.8746 CH2           1 RES     
    1098 CH2         37.4749     5.6236    57.5327 CH2           1 RES     
    1099 CH2         38.6759     4.8688    56.9332 CH2           1 RES     
    1100 CH2         39.0702     5.5133    55.5913 CH2           1 RES     
    1101 CH2         40.2713     4.7585    54.9918 CH2           1 RES     
    1102 CH2         40.6656     5.4029    53.6498 CH2           1 RES     
    1103 CH2         41.8666     4.6481    53.0503 CH2           1 RES     
    1104 CH2         42.2609     5.2925    51.7084 CH2           1 RES     
    1105 CH2         43.4620     4.5377    51.1089 CH2           1 RES     
    1106 CH2         43.8563     5.1822    49.7670 CH2           1 RES     
    1107 CH2         45.0573     4.4274    49.1675 CH2           1 RES     
    1108 CH2         45.4516     5.0718    47.8255 CH2           1 RES     
    1109 CH2         46.6527     4.3170    47.2260 CH2           1 RES     
    1110 CH2         47.0470     4.9614    45.8841 CH2           1 RES     
    1111 CH2         48.2480     4.2066    45.2846 CH2           1 RES     
    1112 CH2         48.6424     4.8511    43.9426 CH2           1 RES     
    1113 CH3         49.7888     4.1306    43.3704 CH3           1 RES     
    1114 CH2         33.8057     8.1458    59.3123 CH2           1 RES     
    1115 OE          34.1042     8.7036    57.9916 OE            1 RES     
    1116 C           33.7465    10.1325    58.2753 C             1 RES     
    1117 O           33.3366    10.5461    59.3587 O             1 RES     
    1118 CH2         34.1879    10.8023    57.1216 CH2           1 RES     
    1119 CH2         34.8318     9.9313    56.0269 CH2           1 RES     
    1120 CH2         35.4256    10.8372    54.9322 CH2           1 RES     
    1121 CH2         36.0695     9.9661    53.8375 CH2           1 RES     
    1122 CH2         36.6633    10.8720    52.7428 CH2           1 RES     
    1123 CH2         37.3072    10.0010    51.6481 CH2           1 RES     
    1124 CH2         37.9010    10.9068    50.5534 CH2           1 RES     
    1125 CH2         38.5449    10.0358    49.4587 CH2           1 RES     
    1126 CH2         39.1387    10.9417    48.3641 CH2           1 RES     
    1127 CH2         39.7826    10.0706    47.2694 CH2           1 RES     
    1128 CH2         40.3764    10.9765    46.1747 CH2           1 RES     
    1129 CH2         41.0203    10.1055    45.0800 CH2           1 RES     
    1130 CH2         41.6141    11.0113    43.9853 CH2           1 RES     
    1131 CH2         42.2580    10.1403    42.8906 CH2           1 RES     
    1132 CH2         42.8518    11.0462    41.7959 CH2           1 RES     
    1133 CH2         43.4957    10.1751    40.7012 CH2           1 RES     
    1134 CH3         44.0626    11.0398    39.6563 CH3           1 RES     
    1135 CH3         39.8471     2.5000    67.0740 CH3           1 RES     
    1136 CH3         39.5978     0.1725    66.8419 CH3           1 RES     
    1137 CH3         37.8618     1.4760    67.1072 CH3           1 RES     
    1138 NL          39.0830     1.3856    66.6059 NL            1 RES     
    1139 CH2         38.8544     1.5559    65.2431 CH2           1 RES     
    1140 CH2         40.2887     1.4451    64.6934 CH2           1 RES     
    1141 OA          40.2673     1.6035    63.2170 OA            1 RES     
    1142 P           40.0832     0.1532    62.5668 P             1 RES     
    1143 OM          41.3504    -0.7169    63.0107 OM            1 RES     
    1144 OM          38.6771    -0.4098    63.0824 OM            1 RES     
    1145 OA          40.0554     0.2825    60.9722 OA            1 RES     
    1146 CH2         39.8837    -1.0789    60.4044 CH2           1 RES     
    1147 CH1         40.4695    -1.2051    59.1855 CH1           1 RES     
    1148 OE          41.6379    -1.7667    58.4924 OE            1 RES     
    1149 C           41.7735    -2.8965    59.4698 C             1 RES     
    1150 O           41.0344    -3.0734    60.4370 O             1 RES     
    1151 CH2         42.7510    -3.7118    58.8746 CH2           1 RES     
    1152 CH2         43.3273    -3.2233    57.5327 CH2           1 RES     
    1153 CH2         44.2316    -4.3162    56.9332 CH2           1 RES     
    1154 CH2         44.8078    -3.8276    55.5913 CH2           1 RES     
    1155 CH2         45.7121    -4.9205    54.9918 CH2           1 RES     
    1156 CH2         46.2884    -4.4319    53.6498 CH2           1 RES     
    1157 CH2         47.1927    -5.5249    53.0503 CH2           1 RES     
    1158 CH2         47.7690    -5.0363    51.7084 CH2           1 RES     
    1159 CH2         48.6733    -6.1292    51.1089 CH2           1 RES     
    1160 CH2         49.2496    -5.6406    49.7670 CH2           1 RES     
    1161 CH2         50.1539    -6.7336    49.1675 CH2           1 RES     
    1162 CH2         50.7301    -6.2450    47.8255 CH2           1 RES     
    1163 CH2         51.6344    -7.3379    47.2260 CH2           1 RES     
    1164 CH2         52.2107    -6.8493    45.8841 CH2           1 RES     
    1165 CH2         53.1150    -7.9423    45.2846 CH2           1 RES     
    1166 CH2         53.6913    -7.4537    43.9426 CH2           1 RES     
    1167 CH3         54.5545    -8.4969    43.3704 CH3           1 RES     
    1168 CH2         40.6324     0.3210    59.3123 CH2           1 RES     
    1169 OE          41.0905     0.7572    57.9916 OE            1 RES     
    1170 C           41.1982     2.2262    58.2753 C             1 RES     
    1171 O           40.9383     2.7474    59.3587 O             1 RES     
    1172 CH2         41.8271     2.7242    57.1216 CH2           1 RES     
    1173 CH2         42.1659     1.6954    56.0269 CH2           1 RES     
    1174 CH2         43.0135     2.3698    54.9322 CH2           1 RES     
    1175 CH2         43.3522     1.3409    53.8375 CH2           1 RES     
    1176 CH2         44.1999     2.0153    52.7428 CH2           1 RES     
    1177 CH2         44.5386     0.9865    51.6481 CH2           1 RES     
    1178 CH2         45.3862     1.6608    50.5534 CH2           1 RES     
    1179 CH2         45.7250     0.6320    49.4587 CH2           1 RES     
    1180 CH2         46.5726     1.3064    48.3641 CH2           1 RES     
    1181 CH2         46.9114     0.2775    47.2694 CH2           1 RES     
    1182 CH2         47.7590     0.9519    46.1747 CH2           1 RES     
    1183 CH2         48.0977    -0.0769    45.0800 CH2           1 RES     
    1184 CH2         48.9454     0.5975    43.9853 CH2           1 RES     
    1185 CH2         49.2841    -0.4314    42.8906 CH2           1 RES     
    1186 CH2         50.1317     0.2430    41.7959 CH2           1 RES     
    1187 CH2         50.4705    -0.7858    40.7012 CH2           1 RES     
    1188 CH3         51.2796    -0.1421    39.6563 CH3           1 RES     
    1189 CH3         54.7860    32.3777    67.0740 CH3           1 RES     
    1190 CH3         55.9410    30.3418    66.8419 CH3           1 RES     
    1191 CH3         53.7707    30.3879    67.1072 CH3           1 RES     
    1192 NL          54.8154    31.0268    66.6059 NL            1 RES     
    1193 CH2         54.5303    31.0318    65.2431 CH2           1 RES     
    1194 CH2         55.7599    31.7784    64.6934 CH2           1 RES     
    1195 OA          55.6502    31.8946    63.2170 OA            1 RES     
    1196 P           56.3466    30.6092    62.5668 P             1 RES     
    1197 OM          57.8834    30.6415    63.0107 OM            1 RES     
    1198 OM          55.5328    29.3317    63.0824 OM            1 RES     
    1199 OA          56.2485    30.6979    60.9722 OA            1 RES     
    1200 CH2         56.9032    29.4920    60.4044 CH2           1 RES     
    1201 CH1         57.4526    29.7311    59.1855 CH1           1 RES     
    1202 OE          58.7292    29.9565    58.4924 OE            1 RES     
    1203 C           59.4983    29.1179    59.4698 C             1 RES     
    1204 O           59.0012    28.5431    60.4370 O             1 RES     
    1205 CH2         60.7679    29.0258    58.8746 CH2           1 RES     
    1206 CH2         60.9510    29.7587    57.5327 CH2           1 RES     
    1207 CH2         62.3230    29.3985    56.9332 CH2           1 RES     
    1208 CH2         62.5062    30.1314    55.5913 CH2           1 RES     
    1209 CH2         63.8782    29.7711    54.9918 CH2           1 RES     
    1210 CH2         64.0613    30.5041    53.6498 CH2           1 RES     
    1211 CH2         65.4333    30.1438    53.0503 CH2           1 RES     
    1212 CH2         65.6164    30.8768    51.7084 CH2           1 RES     
    1213 CH2         66.9884    30.5165    51.1089 CH2           1 RES     
    1214 CH2         67.1716    31.2495    49.7670 CH2           1 RES     
    1215 CH2         68.5436    30.8892    49.1675 CH2           1 RES     
    1216 CH2         68.7267    31.6222    47.8255 CH2           1 RES     
    1217 CH2         70.0987    31.2619    47.2260 CH2           1 RES     
    1218 CH2         70.2818    31.9949    45.8841 CH2           1 RES     
    1219 CH2         71.6538    31.6346    45.2846 CH2           1 RES     
    1220 CH2         71.8370    32.3676    43.9426 CH2           1 RES     
    1221 CH3         73.1466    32.0237    43.3704 CH3           1 RES     
    1222 CH2         56.6948    31.0658    59.3123 CH2           1 RES     
    1223 OE          56.8124    31.6873    57.9916 OE            1 RES     
    1224 C           56.0431    32.9434    58.2753 C             1 RES     
    1225 O           55.5280    33.2152    59.3587 O             1 RES     
    1226 CH2         56.2635    33.7147    57.1216 CH2           1 RES     
    1227 CH2         57.1387    33.0766    56.0269 CH2           1 RES     
    1228 CH2         57.4339    34.1188    54.9322 CH2           1 RES     
    1229 CH2         58.3091    33.4807    53.8375 CH2           1 RES     
    1230 CH2         58.6043    34.5228    52.7428 CH2           1 RES     
    1231 CH2         59.4796    33.8847    51.6481 CH2           1 RES     
    1232 CH2         59.7747    34.9269    50.5534 CH2           1 RES     
    1233 CH2         60.6500    34.2888    49.4587 CH2           1 RES     
    1234 CH2         60.9451    35.3310    48.3641 CH2           1 RES     
    1235 CH2         61.8204    34.6929    47.2694 CH2           1 RES     
    1236 CH2         62.1155    35.7350    46.1747 CH2           1 RES     
    1237 CH2         62.9908    35.0969    45.0800 CH2           1 RES     
    1238 CH2         63.2859    36.1391    43.9853 CH2           1 RES     
    1239 CH2         64.1612    35.5010    42.8906 CH2           1 RES     
    1240 CH2         64.4563    36.5432    41.7959 CH2           1 RES     
    1241 CH2         65.3316    35.9051    40.7012 CH2           1 RES     
    1242 CH3         65.6133    36.8999    39.6563 CH3           1 RES     
    1243 CH3         32.3777    47.3165    67.0740 CH3           1 RES     
    1244 CH3         32.5894    44.9854    66.8419 CH3           1 RES     
    1245 CH3         30.6316    45.9233    67.1072 CH3           1 RES     
    1246 NL          31.8468    46.0740    66.6059 NL            1 RES     
    1247 CH2         31.5892    46.1962    65.2431 CH2           1 RES     
    1248 CH2         33.0174    46.3687    64.6934 CH2           1 RES     
    1249 OA          32.9654    46.5198    63.2170 OA            1 RES     
    1250 P           33.0691    45.0616    62.5668 P             1 RES     
    1251 OM          34.4823    44.4566    63.0107 OM            1 RES     
    1252 OM          31.8006    44.2339    63.0824 OM            1 RES     
    1253 OA          33.0165    45.1828    60.9722 OA            1 RES     
    1254 CH2         33.1150    43.8142    60.4044 CH2           1 RES     
    1255 CH1         33.7141    43.8052    59.1855 CH1           1 RES     
    1256 OE          34.9699    43.4835    58.4924 OE            1 RES     
    1257 C           35.3242    42.4022    59.4698 C             1 RES     
    1258 O           34.6342    42.0839    60.4370 O             1 RES     
    1259 CH2         36.4426    41.7943    58.8746 CH2           1 RES     
    1260 CH2         36.9119    42.3863    57.5327 CH2           1 RES     
    1261 CH2         38.0129    41.4918    56.9332 CH2           1 RES     
    1262 CH2         38.4822    42.0838    55.5913 CH2           1 RES     
    1263 CH2         39.5832    41.1893    54.9918 CH2           1 RES     
    1264 CH2         40.0525    41.7813    53.6498 CH2           1 RES     
    1265 CH2         41.1535    40.8868    53.0503 CH2           1 RES     
    1266 CH2         41.6228    41.4788    51.7084 CH2           1 RES     
    1267 CH2         42.7238    40.5843    51.1089 CH2           1 RES     
    1268 CH2         43.1931    41.1764    49.7670 CH2           1 RES     
    1269 CH2         44.2941    40.2819    49.1675 CH2           1 RES     
    1270 CH2         44.7634    40.8739    47.8255 CH2           1 RES     
    1271 CH2         45.8644    39.9794    47.2260 CH2           1 RES     
    1272 CH2         46.3337    40.5714    45.8841 CH2           1 RES     
    1273 CH2         47.4347    39.6769    45.2846 CH2           1 RES     
    1274 CH2         47.9040    40.2689    43.9426 CH2           1 RES     
    1275 CH3         48.9549    39.4151    43.3704 CH3           1 RES     
    1276 CH2         33.5747    45.3337    59.3123 CH2           1 RES     
    1277 OE          33.9385    45.8512    57.9916 OE            1 RES     
    1278 C           33.7562    47.3129    58.2753 C             1 RES     
    1279 O           33.3992    47.7730    59.3587 O             1 RES     
    1280 CH2         34.2754    47.9244    57.1216 CH2           1 RES     
    1281 CH2         34.8092    46.9819    56.0269 CH2           1 RES     
    1282 CH2         35.5082    47.8093    54.9322 CH2           1 RES     
    1283 CH2         36.0420    46.8668    53.8375 CH2           1 RES     
    1284 CH2         36.7410    47.6943    52.7428 CH2           1 RES     
    1285 CH2         37.2748    46.7518    51.6481 CH2           1 RES     
    1286 CH2         37.9739    47.5792    50.5534 CH2           1 RES     
    1287 CH2         38.5077    46.6367    49.4587 CH2           1 RES     
    1288 CH2         39.2067    47.4641    48.3641 CH2           1 RES     
    1289 CH2         39.7405    46.5216    47.2694 CH2           1 RES     
    1290 CH2         40.4395    47.3490    46.1747 CH2           1 RES     
    1291 CH2         40.9733    46.4065    45.0800 CH2           1 RES     
    1292 CH2         41.6724    47.2339    43.9853 CH2           1 RES     
    1293 CH2         42.2062    46.2914    42.8906 CH2           1 RES     
    1294 CH2         42.9052    47.1188    41.7959 CH2           1 RES     
    1295 CH2         43.4390    46.1763    40.7012 CH2           1 RES     
    1296 CH3         44.1063    46.9661    39.6563 CH3           1 RES     
    1297 CH3         54.7860    47.3165    67.0740 CH3           1 RES     
    1298 CH3         54.2167    45.0461    66.8419 CH3           1 RES     
    1299 CH3         52.6780    46.5774    67.1072 CH3           1 RES     
    1300 NL          53.8749    46.3187    66.6059 NL            1 RES     
    1301 CH2         53.6720    46.5191    65.2431 CH2           1 RES     
    1302 CH2         55.0771    46.2107    64.6934 CH2           1 RES     
    1303 OA          55.0779    46.3705    63.2170 OA            1 RES     
    1304 P           54.6948    44.9597    62.5668 P             1 RES     
    1305 OM          55.8292    43.9224    63.0107 OM            1 RES     
    1306 OM          53.2242    44.5969    63.0824 OM            1 RES     
    1307 OA          54.6850    45.0916    60.9722 OA            1 RES     
    1308 CH2         54.3265    43.7671    60.4044 CH2           1 RES     
    1309 CH1         54.8891    43.5609    59.1855 CH1           1 RES     
    1310 OE          55.9684    42.8429    58.4924 OE            1 RES     
    1311 C           55.9462    41.7053    59.4698 C             1 RES     
    1312 O           55.1898    41.6324    60.4370 O             1 RES     
    1313 CH2         56.8014    40.7624    58.8746 CH2           1 RES     
    1314 CH2         57.4398    41.1664    57.5327 CH2           1 RES     
    1315 CH2         58.1840    39.9588    56.9332 CH2           1 RES     
    1316 CH2         58.8224    40.3628    55.5913 CH2           1 RES     
    1317 CH2         59.5666    39.1552    54.9918 CH2           1 RES     
    1318 CH2         60.2050    39.5592    53.6498 CH2           1 RES     
    1319 CH2         60.9492    38.3516    53.0503 CH2           1 RES     
    1320 CH2         61.5876    38.7556    51.7084 CH2           1 RES     
    1321 CH2         62.3318    37.5480    51.1089 CH2           1 RES     
    1322 CH2         62.9701    37.9520    49.7670 CH2           1 RES     
    1323 CH2         63.7143    36.7443    49.1675 CH2           1 RES     
    1324 CH2         64.3527    37.1484    47.8255 CH2           1 RES     
    1325 CH2         65.0969    35.9407    47.2260 CH2           1 RES     
    1326 CH2         65.7353    36.3448    45.8841 CH2           1 RES     
    1327 CH2         66.4795    35.1371    45.2846 CH2           1 RES     
    1328 CH2         67.1179    35.5412    43.9426 CH2           1 RES     
    1329 CH3         67.8283    34.3884    43.3704 CH3           1 RES     
    1330 CH2         55.2618    45.0498    59.3123 CH2           1 RES     
    1331 OE          55.7759    45.4184    57.9916 OE            1 RES     
    1332 C           56.0861    46.8583    58.2753 C             1 RES     
    1333 O           55.9009    47.4105    59.3587 O             1 RES     
    1334 CH2         56.7779    47.2643    57.1216 CH2           1 RES     
    1335 CH2         56.9709    46.1985    56.0269 CH2           1 RES     
    1336 CH2         57.9038    46.7490    54.9322 CH2           1 RES     
    1337 CH2         58.0967    45.6831    53.8375 CH2           1 RES     
    1338 CH2         59.0296    46.2336    52.7428 CH2           1 RES     
    1339 CH2         59.2226    45.1678    51.6481 CH2           1 RES     
    1340 CH2         60.1555    45.7182    50.5534 CH2           1 RES     
    1341 CH2         60.3484    44.6524    49.4587 CH2           1 RES     
    1342 CH2         61.2813    45.2028    48.3641 CH2           1 RES     
    1343 CH2         61.4743    44.1370    47.2694 CH2           1 RES     
    1344 CH2         62.4071    44.6875    46.1747 CH2           1 RES     
    1345 CH2         62.6001    43.6216    45.0800 CH2           1 RES     
    1346 CH2         63.5330    44.1721    43.9853 CH2           1 RES     
    1347 CH2         63.7259    43.1062    42.8906 CH2           1 RES     
    1348 CH2         64.6588    43.6567    41.7959 CH2           1 RES     
    1349 CH2         64.8518    42.5909    40.7012 CH2           1 RES     
    1350 CH3         65.7422    43.1163    39.6563 CH3           1 RES     
    1351 CH3         54.7860    54.7860    67.0740 CH3           1 RES     
    1352 CH3         55.8480    52.7000    66.8419 CH3           1 RES     
    1353 CH3         53.6820    52.8440    67.1072 CH3           1 RES     
    1354 NL          54.7544    53.4351    66.6059 NL            1 RES     
    1355 CH2         54.4698    53.4530    65.2431 CH2           1 RES     
    1356 CH2         55.7319    54.1434    64.6934 CH2           1 RES     
    1357 OA          55.6275    54.2644    63.2170 OA            1 RES     
    1358 P           56.2652    52.9489    62.5668 P             1 RES     
    1359 OM          57.8020    52.9119    63.0107 OM            1 RES     
    1360 OM          55.3947    51.7094    63.0824 OM            1 RES     
    1361 OA          56.1713    53.0419    60.9722 OA            1 RES     
    1362 CH2         56.7709    51.8077    60.4044 CH2           1 RES     
    1363 CH1         57.3306    52.0218    59.1855 CH1           1 RES     
    1364 OE          58.6160    52.1894    58.4924 OE            1 RES     
    1365 C           59.3465    51.3169    59.4698 C             1 RES     
    1366 O           58.8240    50.7652    60.4370 O             1 RES     
    1367 CH2         60.6106    51.1677    58.8746 CH2           1 RES     
    1368 CH2         60.8266    51.8916    57.5327 CH2           1 RES     
    1369 CH2         62.1810    51.4698    56.9332 CH2           1 RES     
    1370 CH2         62.3970    52.1938    55.5913 CH2           1 RES     
    1371 CH2         63.7514    51.7720    54.9918 CH2           1 RES     
    1372 CH2         63.9674    52.4960    53.6498 CH2           1 RES     
    1373 CH2         65.3217    52.0742    53.0503 CH2           1 RES     
    1374 CH2         65.5377    52.7981    51.7084 CH2           1 RES     
    1375 CH2         66.8921    52.3763    51.1089 CH2           1 RES     
    1376 CH2         67.1081    53.1003    49.7670 CH2           1 RES     
    1377 CH2         68.4624    52.6785    49.1675 CH2           1 RES     
    1378 CH2         68.6784    53.4025    47.8255 CH2           1 RES     
    1379 CH2         70.0328    52.9807    47.2260 CH2           1 RES     
    1380 CH2         70.2488    53.7047    45.8841 CH2           1 RES     
    1381 CH2         71.6032    53.2829    45.2846 CH2           1 RES     
    1382 CH2         71.8192    54.0068    43.9426 CH2           1 RES     
    1383 CH3         73.1120    53.6042    43.3704 CH3           1 RES     
    1384 CH2         56.6337    53.3893    59.3123 CH2           1 RES     
    1385 OE          56.7792    54.0049    57.9916 OE            1 RES     
    1386 C           56.0673    55.2944    58.2753 C             1 RES     
    1387 O           55.5650    55.5891    59.3587 O             1 RES     
    1388 CH2         56.3223    56.0550    57.1216 CH2           1 RES     
    1389 CH2         57.1679    55.3780    56.0269 CH2           1 RES     
    1390 CH2         57.5097    56.4059    54.9322 CH2           1 RES     
    1391 CH2         58.3553    55.7289    53.8375 CH2           1 RES     
    1392 CH2         58.6972    56.7567    52.7428 CH2           1 RES     
    1393 CH2         59.5427    56.0798    51.6481 CH2           1 RES     
    1394 CH2         59.8846    57.1076    50.5534 CH2           1 RES     
    1395 CH2         60.7302    56.4307    49.4587 CH2           1 RES     
    1396 CH2         61.0720    57.4585    48.3641 CH2           1 RES     
    1397 CH2         61.9176    56.7815    47.2694 CH2           1 RES     
    1398 CH2         62.2595    57.8093    46.1747 CH2           1 RES     
    1399 CH2         63.1051    57.1324    45.0800 CH2           1 RES     
    1400 CH2         63.4469    58.1602    43.9853 CH2           1 RES     
    1401 CH2         64.2925    57.4833    42.8906 CH2           1 RES     
    1402 CH2         64.6344    58.5111    41.7959 CH2           1 RES     
    1403 CH2         65.4800    57.8341    40.7012 CH2           1 RES     
    1404 CH3         65.8063    58.8152    39.6563 CH3           1 RES     
    1405 CH3         39.8471    24.9083    67.0740 CH3           1 RES     
    1406 CH3         40.2261    22.5984    66.8419 CH3           1 RES     
    1407 CH3         38.2059    23.3929    67.1072 CH3           1 RES     
    1408 NL          39.4071    23.6307    66.6059 NL            1 RES     
    1409 CH2         39.1414    23.7341    65.2431 CH2           1 RES     
    1410 CH2         40.5534    24.0089    64.6934 CH2           1 RES     
    1411 OA          40.4907    24.1559    63.2170 OA            1 RES     
    1412 P           40.6992    22.7089    62.5668 P             1 RES     
    1413 OM          42.1522    22.2073    63.0107 OM            1 RES     
    1414 OM          39.4936    21.7921    63.0824 OM            1 RES     
    1415 OA          40.6379    22.8261    60.9722 OA            1 RES     
    1416 CH2         40.8347    21.4681    60.4044 CH2           1 RES     
    1417 CH1         41.4330    21.5023    59.1855 CH1           1 RES     
    1418 OE          42.7086    21.2719    58.4924 OE            1 RES     
    1419 C           43.1399    20.2189    59.4698 C             1 RES     
    1420 O           42.4746    19.8517    60.4370 O             1 RES     
    1421 CH2         44.2992    19.6931    58.8746 CH2           1 RES     
    1422 CH2         44.7247    20.3174    57.5327 CH2           1 RES     
    1423 CH2         45.8872    19.5045    56.9332 CH2           1 RES     
    1424 CH2         46.3127    20.1288    55.5913 CH2           1 RES     
    1425 CH2         47.4752    19.3159    54.9918 CH2           1 RES     
    1426 CH2         47.9007    19.9402    53.6498 CH2           1 RES     
    1427 CH2         49.0632    19.1273    53.0503 CH2           1 RES     
    1428 CH2         49.4887    19.7516    51.7084 CH2           1 RES     
    1429 CH2         50.6512    18.9387    51.1089 CH2           1 RES     
    1430 CH2         51.0767    19.5630    49.7670 CH2           1 RES     
    1431 CH2         52.2392    18.7501    49.1675 CH2           1 RES     
    1432 CH2         52.6647    19.3744    47.8255 CH2           1 RES     
    1433 CH2         53.8272    18.5615    47.2260 CH2           1 RES     
    1434 CH2         54.2527    19.1858    45.8841 CH2           1 RES     
    1435 CH2         55.4152    18.3729    45.2846 CH2           1 RES     
    1436 CH2         55.8407    18.9972    43.9426 CH2           1 RES     
    1437 CH3         56.9504    18.2213    43.3704 CH3           1 RES     
    1438 CH2         41.1839    23.0168    59.3123 CH2           1 RES     
    1439 OE          41.5094    23.5592    57.9916 OE            1 RES     
    1440 C           41.2223    25.0039    58.2753 C             1 RES     
    1441 O           40.8331    25.4372    59.3587 O             1 RES     
    1442 CH2         41.6961    25.6513    57.1216 CH2           1 RES     
    1443 CH2         42.2964    24.7497    56.0269 CH2           1 RES     
    1444 CH2         42.9340    25.6253    54.9322 CH2           1 RES     
    1445 CH2         43.5343    24.7237    53.8375 CH2           1 RES     
    1446 CH2         44.1719    25.5993    52.7428 CH2           1 RES     
    1447 CH2         44.7722    24.6976    51.6481 CH2           1 RES     
    1448 CH2         45.4098    25.5733    50.5534 CH2           1 RES     
    1449 CH2         46.0101    24.6716    49.4587 CH2           1 RES     
    1450 CH2         46.6478    25.5473    48.3641 CH2           1 RES     
    1451 CH2         47.2481    24.6456    47.2694 CH2           1 RES     
    1452 CH2         47.8857    25.5213    46.1747 CH2           1 RES     
    1453 CH2         48.4860    24.6196    45.0800 CH2           1 RES     
    1454 CH2         49.1236    25.4953    43.9853 CH2           1 RES     
    1455 CH2         49.7239    24.5936    42.8906 CH2           1 RES     
    1456 CH2         50.3615    25.4692    41.7959 CH2           1 RES     
    1457 CH2         50.9618    24.5676    40.7012 CH2           1 RES     
    1458 CH3         51.5705    25.4034    39.6563 CH3           1 RES     
    1459 CH3         39.8471    17.4388    67.0740 CH3           1 RES     
    1460 CH3         41.0545    15.4335    66.8419 CH3           1 RES     
    1461 CH3         38.8837    15.4234    67.1072 CH3           1 RES     
    1462 NL          39.9115    16.0892    66.6059 NL            1 RES     
    1463 CH2         39.6264    16.0868    65.2431 CH2           1 RES     
    1464 CH2         40.8363    16.8650    64.6934 CH2           1 RES     
    1465 OA          40.7235    16.9783    63.2170 OA            1 RES     
    1466 P           41.4530    15.7114    62.5668 P             1 RES     
    1467 OM          42.9885    15.7835    63.0107 OM            1 RES     
    1468 OM          40.6726    14.4132    63.0824 OM            1 RES     
    1469 OA          41.3527    15.7975    60.9722 OA            1 RES     
    1470 CH2         42.0384    14.6089    60.4044 CH2           1 RES     
    1471 CH1         42.5814    14.8622    59.1855 CH1           1 RES     
    1472 OE          43.8518    15.1206    58.4924 OE            1 RES     
    1473 C           44.6423    14.3022    59.4698 C             1 RES     
    1474 O           44.1603    13.7147    60.4370 O             1 RES     
    1475 CH2         45.9139    14.2430    58.8746 CH2           1 RES     
    1476 CH2         46.0780    14.9804    57.5327 CH2           1 RES     
    1477 CH2         47.4588    14.6558    56.9332 CH2           1 RES     
    1478 CH2         47.6229    15.3933    55.5913 CH2           1 RES     
    1479 CH2         49.0038    15.0687    54.9918 CH2           1 RES     
    1480 CH2         49.1679    15.8061    53.6498 CH2           1 RES     
    1481 CH2         50.5487    15.4815    53.0503 CH2           1 RES     
    1482 CH2         50.7128    16.2190    51.7084 CH2           1 RES     
    1483 CH2         52.0937    15.8943    51.1089 CH2           1 RES     
    1484 CH2         52.2578    16.6318    49.7670 CH2           1 RES     
    1485 CH2         53.6387    16.3072    49.1675 CH2           1 RES     
    1486 CH2         53.8027    17.0447    47.8255 CH2           1 RES     
    1487 CH2         55.1836    16.7200    47.2260 CH2           1 RES     
    1488 CH2         55.3477    17.4575    45.8841 CH2           1 RES     
    1489 CH2         56.7286    17.1329    45.2846 CH2           1 RES     
    1490 CH2         56.8927    17.8704    43.9426 CH2           1 RES     
    1491 CH3         58.2108    17.5605    43.3704 CH3           1 RES     
    1492 CH2         41.7893    16.1768    59.3123 CH2           1 RES     
    1493 OE          41.8908    16.8012    57.9916 OE            1 RES     
    1494 C           41.0892    18.0369    58.2753 C             1 RES     
    1495 O           40.5672    18.2953    59.3587 O             1 RES     
    1496 CH2         41.2895    18.8137    57.1216 CH2           1 RES     
    1497 CH2         42.1810    18.1985    56.0269 CH2           1 RES     
    1498 CH2         42.4491    19.2479    54.9322 CH2           1 RES     
    1499 CH2         43.3405    18.6327    53.8375 CH2           1 RES     
    1500 CH2         43.6086    19.6822    52.7428 CH2           1 RES     
    1501 CH2         44.5001    19.0669    51.6481 CH2           1 RES     
    1502 CH2         44.7682    20.1164    50.5534 CH2           1 RES     
    1503 CH2         45.6596    19.5012    49.4587 CH2           1 RES     
    1504 CH2         45.9277    20.5507    48.3641 CH2           1 RES     
    1505 CH2         46.8192    19.9354    47.2694 CH2           1 RES     
    1506 CH2         47.0873    20.9849    46.1747 CH2           1 RES     
    1507 CH2         47.9787    20.3697    45.0800 CH2           1 RES     
    1508 CH2         48.2468    21.4191    43.9853 CH2           1 RES     
    1509 CH2         49.1383    20.8039    42.8906 CH2           1 RES     
    1510 CH2         49.4064    21.8534    41.7959 CH2           1 RES     
    1511 CH2         50.2978    21.2382    40.7012 CH2           1 RES     
    1512 CH3         50.5537    22.2399    39.6563 CH3           1 RES     
    1513 CH3          2.5000    47.3165    67.0740 CH3           1 RES     
    1514 CH3          2.9882    45.0273    66.8419 CH3           1 RES     
    1515 CH3          0.9326    45.7250    67.1072 CH3           1 RES     
    1516 NL           2.1211    46.0195    66.6059 NL            1 RES     
    1517 CH2          1.8508    46.1102    65.2431 CH2           1 RES     
    1518 CH2          3.2482    46.4517    64.6934 CH2           1 RES     
    1519 OA           3.1786    46.5956    63.2170 OA            1 RES     
    1520 P            3.4555    45.1601    62.5668 P             1 RES     
    1521 OM           4.9307    44.7281    63.0107 OM            1 RES     
    1522 OM           2.2948    44.1871    63.0824 OM            1 RES     
    1523 OA           3.3887    45.2743    60.9722 OA            1 RES     
    1524 CH2          3.6498    43.9272    60.4044 CH2           1 RES     
    1525 CH1          4.2457    43.9897    59.1855 CH1           1 RES     
    1526 OE           5.5309    43.8201    58.4924 OE            1 RES     
    1527 C            6.0117    42.7888    59.4698 C             1 RES     
    1528 O            5.3646    42.3904    60.4370 O             1 RES     
    1529 CH2          7.1946    42.3186    58.8746 CH2           1 RES     
    1530 CH2          7.5900    42.9624    57.5327 CH2           1 RES     
    1531 CH2          8.7898    42.2056    56.9332 CH2           1 RES     
    1532 CH2          9.1852    42.8494    55.5913 CH2           1 RES     
    1533 CH2         10.3849    42.0926    54.9918 CH2           1 RES     
    1534 CH2         10.7803    42.7364    53.6498 CH2           1 RES     
    1535 CH2         11.9801    41.9796    53.0503 CH2           1 RES     
    1536 CH2         12.3755    42.6234    51.7084 CH2           1 RES     
    1537 CH2         13.5753    41.8666    51.1089 CH2           1 RES     
    1538 CH2         13.9707    42.5104    49.7670 CH2           1 RES     
    1539 CH2         15.1705    41.7536    49.1675 CH2           1 RES     
    1540 CH2         15.5658    42.3974    47.8255 CH2           1 RES     
    1541 CH2         16.7656    41.6406    47.2260 CH2           1 RES     
    1542 CH2         17.1610    42.2844    45.8841 CH2           1 RES     
    1543 CH2         18.3608    41.5276    45.2846 CH2           1 RES     
    1544 CH2         18.7562    42.1714    43.9426 CH2           1 RES     
    1545 CH3         19.9014    41.4490    43.3704 CH3           1 RES     
    1546 CH2          3.9250    45.4906    59.3123 CH2           1 RES     
    1547 OE           4.2244    46.0479    57.9916 OE            1 RES     
    1548 C            3.8691    47.4773    58.2753 C             1 RES     
    1549 O            3.4598    47.8916    59.3587 O             1 RES     
    1550 CH2          4.3116    48.1465    57.1216 CH2           1 RES     
    1551 CH2          4.9540    47.2744    56.0269 CH2           1 RES     
    1552 CH2          5.5494    48.1793    54.9322 CH2           1 RES     
    1553 CH2          6.1918    47.3072    53.8375 CH2           1 RES     
    1554 CH2          6.7871    48.2121    52.7428 CH2           1 RES     
    1555 CH2          7.4295    47.3400    51.6481 CH2           1 RES     
    1556 CH2          8.0249    48.2448    50.5534 CH2           1 RES     
    1557 CH2          8.6673    47.3728    49.4587 CH2           1 RES     
    1558 CH2          9.2626    48.2776    48.3641 CH2           1 RES     
    1559 CH2          9.9051    47.4055    47.2694 CH2           1 RES     
    1560 CH2         10.5004    48.3104    46.1747 CH2           1 RES     
    1561 CH2         11.1428    47.4383    45.0800 CH2           1 RES     
    1562 CH2         11.7382    48.3432    43.9853 CH2           1 RES     
    1563 CH2         12.3806    47.4711    42.8906 CH2           1 RES     
    1564 CH2         12.9759    48.3760    41.7959 CH2           1 RES     
    1565 CH2         13.6183    47.5039    40.7012 CH2           1 RES     
    1566 CH3         14.1866    48.3677    39.6563 CH3           1 RES     
    1567 CH3         54.7860    24.9083    67.0740 CH3           1 RES     
    1568 CH3         56.0900    22.9644    66.8419 CH3           1 RES     
    1569 CH3         53.9222    22.8482    67.1072 CH3           1 RES     
    1570 NL          54.9162    23.5633    66.6059 NL            1 RES     
    1571 CH2         54.6316    23.5470    65.2431 CH2           1 RES     
    1572 CH2         55.8020    24.3834    64.6934 CH2           1 RES     
    1573 OA          55.6839    24.4911    63.2170 OA            1 RES     
    1574 P           56.4744    23.2614    62.5668 P             1 RES     
    1575 OM          58.0045    23.4084    63.0107 OM            1 RES     
    1576 OM          55.7584    21.9266    63.0824 OM            1 RES     
    1577 OA          56.3700    23.3425    60.9722 OA            1 RES     
    1578 CH2         57.1129    22.1889    60.4044 CH2           1 RES     
    1579 CH1         57.6430    22.4684    59.1855 CH1           1 RES     
    1580 OE          58.8992    22.7885    58.4924 OE            1 RES     
    1581 C           59.7288    22.0098    59.4698 C             1 RES     
    1582 O           59.2760    21.3994    60.4370 O             1 RES     
    1583 CH2         61.0017    22.0128    58.8746 CH2           1 RES     
    1584 CH2         61.1295    22.7574    57.5327 CH2           1 RES     
    1585 CH2         62.5246    22.5006    56.9332 CH2           1 RES     
    1586 CH2         62.6525    23.2453    55.5913 CH2           1 RES     
    1587 CH2         64.0476    22.9885    54.9918 CH2           1 RES     
    1588 CH2         64.1754    23.7331    53.6498 CH2           1 RES     
    1589 CH2         65.5705    23.4764    53.0503 CH2           1 RES     
    1590 CH2         65.6983    24.2210    51.7084 CH2           1 RES     
    1591 CH2         67.0934    23.9643    51.1089 CH2           1 RES     
    1592 CH2         67.2212    24.7089    49.7670 CH2           1 RES     
    1593 CH2         68.6163    24.4521    49.1675 CH2           1 RES     
    1594 CH2         68.7442    25.1967    47.8255 CH2           1 RES     
    1595 CH2         70.1393    24.9400    47.2260 CH2           1 RES     
    1596 CH2         70.2671    25.6846    45.8841 CH2           1 RES     
    1597 CH2         71.6622    25.4279    45.2846 CH2           1 RES     
    1598 CH2         71.7900    26.1725    43.9426 CH2           1 RES     
    1599 CH3         73.1217    25.9274    43.3704 CH3           1 RES     
    1600 CH2         56.7875    23.7427    59.3123 CH2           1 RES     
    1601 OE          56.8583    24.3713    57.9916 OE            1 RES     
    1602 C           55.9973    25.5663    58.2753 C             1 RES     
    1603 O           55.4633    25.7989    59.3587 O             1 RES     
    1604 CH2         56.1594    26.3520    57.1216 CH2           1 RES     
    1605 CH2         57.0799    25.7811    56.0269 CH2           1 RES     
    1606 CH2         57.2964    26.8424    54.9322 CH2           1 RES     
    1607 CH2         58.2169    26.2715    53.8375 CH2           1 RES     
    1608 CH2         58.4333    27.3328    52.7428 CH2           1 RES     
    1609 CH2         59.3538    26.7619    51.6481 CH2           1 RES     
    1610 CH2         59.5702    27.8232    50.5534 CH2           1 RES     
    1611 CH2         60.4907    27.2523    49.4587 CH2           1 RES     
    1612 CH2         60.7072    28.3136    48.3641 CH2           1 RES     
    1613 CH2         61.6277    27.7427    47.2694 CH2           1 RES     
    1614 CH2         61.8441    28.8040    46.1747 CH2           1 RES     
    1615 CH2         62.7646    28.2331    45.0800 CH2           1 RES     
    1616 CH2         62.9811    29.2944    43.9853 CH2           1 RES     
    1617 CH2         63.9015    28.7235    42.8906 CH2           1 RES     
    1618 CH2         64.1180    29.7848    41.7959 CH2           1 RES     
    1619 CH2         65.0385    29.2139    40.7012 CH2           1 RES     
    1620 CH3         65.2451    30.2270    39.6563 CH3           1 RES     
    1621 CH3         24.9083    32.3777    67.0740 CH3           1 RES     
    1622 CH3         25.0929    30.0442    66.8419 CH3           1 RES     
    1623 CH3         23.1461    31.0048    67.1072 CH3           1 RES     
    1624 NL          24.3630    31.1414    66.6059 NL            1 RES     
    1625 CH2         24.1069    31.2666    65.2431 CH2           1 RES     
    1626 CH2         25.5369    31.4224    64.6934 CH2           1 RES     
    1627 OA          25.4867    31.5742    63.2170 OA            1 RES     
    1628 P           25.5735    30.1148    62.5668 P             1 RES     
    1629 OM          26.9795    29.4935    63.0107 OM            1 RES     
    1630 OM          24.2955    29.3020    63.0824 OM            1 RES     
    1631 OA          25.5222    30.2367    60.9722 OA            1 RES     
    1632 CH2         25.6048    28.8670    60.4044 CH2           1 RES     
    1633 CH1         26.2038    28.8511    59.1855 CH1           1 RES     
    1634 OE          27.4558    28.5148    58.4924 OE            1 RES     
    1635 C           27.7975    27.4295    59.4698 C             1 RES     
    1636 O           27.1039    27.1192    60.4370 O             1 RES     
    1637 CH2         28.9088    26.8086    58.8746 CH2           1 RES     
    1638 CH2         29.3850    27.3951    57.5327 CH2           1 RES     
    1639 CH2         30.4754    26.4879    56.9332 CH2           1 RES     
    1640 CH2         30.9516    27.0744    55.5913 CH2           1 RES     
    1641 CH2         32.0421    26.1672    54.9918 CH2           1 RES     
    1642 CH2         32.5183    26.7537    53.6498 CH2           1 RES     
    1643 CH2         33.6088    25.8465    53.0503 CH2           1 RES     
    1644 CH2         34.0850    26.4330    51.7084 CH2           1 RES     
    1645 CH2         35.1755    25.5258    51.1089 CH2           1 RES     
    1646 CH2         35.6517    26.1123    49.7670 CH2           1 RES     
    1647 CH2         36.7422    25.2051    49.1675 CH2           1 RES     
    1648 CH2         37.2184    25.7916    47.8255 CH2           1 RES     
    1649 CH2         38.3089    24.8844    47.2260 CH2           1 RES     
    1650 CH2         38.7851    25.4710    45.8841 CH2           1 RES     
    1651 CH2         39.8755    24.5637    45.2846 CH2           1 RES     
    1652 CH2         40.3517    25.1503    43.9426 CH2           1 RES     
    1653 CH3         41.3927    24.2843    43.3704 CH3           1 RES     
    1654 CH2         26.0822    30.3811    59.3123 CH2           1 RES     
    1655 OE          26.4519    30.8944    57.9916 OE            1 RES     
    1656 C           26.2866    32.3580    58.2753 C             1 RES     
    1657 O           25.9351    32.8223    59.3587 O             1 RES     
    1658 CH2         26.8129    32.9635    57.1216 CH2           1 RES     
    1659 CH2         27.3357    32.0149    56.0269 CH2           1 RES     
    1660 CH2         28.0443    32.8341    54.9322 CH2           1 RES     
    1661 CH2         28.5671    31.8855    53.8375 CH2           1 RES     
    1662 CH2         29.2757    32.7047    52.7428 CH2           1 RES     
    1663 CH2         29.7985    31.7561    51.6481 CH2           1 RES     
    1664 CH2         30.5071    32.5753    50.5534 CH2           1 RES     
    1665 CH2         31.0299    31.6267    49.4587 CH2           1 RES     
    1666 CH2         31.7385    32.4459    48.3641 CH2           1 RES     
    1667 CH2         32.2613    31.4973    47.2694 CH2           1 RES     
    1668 CH2         32.9699    32.3165    46.1747 CH2           1 RES     
    1669 CH2         33.4928    31.3679    45.0800 CH2           1 RES     
    1670 CH2         34.2013    32.1871    43.9853 CH2           1 RES     
    1671 CH2         34.7242    31.2385    42.8906 CH2           1 RES     
    1672 CH2         35.4328    32.0577    41.7959 CH2           1 RES     
    1673 CH2         35.9556    31.1091    40.7012 CH2           1 RES     
    1674 CH3         36.6320    31.8911    39.6563 CH3           1 RES     
    1675 CH3          9.9694    17.4388    67.0740 CH3           1 RES     
    1676 CH3          9.7506    15.1083    66.8419 CH3           1 RES     
    1677 CH3          7.9977    16.3889    67.1072 CH3           1 RES     
    1678 NL           9.2200    16.3145    66.6059 NL            1 RES     
    1679 CH2          8.9891    16.4819    65.2431 CH2           1 RES     
    1680 CH2         10.4247    16.3898    64.6934 CH2           1 RES     
    1681 OA          10.4013    16.5479    63.2170 OA            1 RES     
    1682 P           10.2362    15.0954    62.5668 P             1 RES     
    1683 OM          11.5147    14.2419    63.0107 OM            1 RES     
    1684 OM           8.8376    14.5140    63.0824 OM            1 RES     
    1685 OA          10.2066    15.2242    60.9722 OA            1 RES     
    1686 CH2         10.0528    13.8607    60.4044 CH2           1 RES     
    1687 CH1         10.6402    13.7422    59.1855 CH1           1 RES     
    1688 OE          11.8158    13.1959    58.4924 OE            1 RES     
    1689 C           11.9662    12.0681    59.4698 C             1 RES     
    1690 O           11.2295    11.8815    60.4370 O             1 RES     
    1691 CH2         12.9543    11.2656    58.8746 CH2           1 RES     
    1692 CH2         13.5241    11.7616    57.5327 CH2           1 RES     
    1693 CH2         14.4426    10.6806    56.9332 CH2           1 RES     
    1694 CH2         15.0125    11.1767    55.5913 CH2           1 RES     
    1695 CH2         15.9310    10.0957    54.9918 CH2           1 RES     
    1696 CH2         16.5008    10.5918    53.6498 CH2           1 RES     
    1697 CH2         17.4194     9.5108    53.0503 CH2           1 RES     
    1698 CH2         17.9892    10.0068    51.7084 CH2           1 RES     
    1699 CH2         18.9077     8.9258    51.1089 CH2           1 RES     
    1700 CH2         19.4775     9.4219    49.7670 CH2           1 RES     
    1701 CH2         20.3961     8.3409    49.1675 CH2           1 RES     
    1702 CH2         20.9659     8.8370    47.8255 CH2           1 RES     
    1703 CH2         21.8844     7.7560    47.2260 CH2           1 RES     
    1704 CH2         22.4543     8.2521    45.8841 CH2           1 RES     
    1705 CH2         23.3728     7.1711    45.2846 CH2           1 RES     
    1706 CH2         23.9426     7.6671    43.9426 CH2           1 RES     
    1707 CH3         24.8194     6.6353    43.3704 CH3           1 RES     
    1708 CH2         10.7831    15.2703    59.3123 CH2           1 RES     
    1709 OE          11.2355    15.7125    57.9916 OE            1 RES     
    1710 C           11.3239    17.1828    58.2753 C             1 RES     
    1711 O           11.0573    17.7005    59.3587 O             1 RES     
    1712 CH2         11.9463    17.6890    57.1216 CH2           1 RES     
    1713 CH2         12.2985    16.6646    56.0269 CH2           1 RES     
    1714 CH2         13.1372    17.3500    54.9322 CH2           1 RES     
    1715 CH2         13.4894    16.3257    53.8375 CH2           1 RES     
    1716 CH2         14.3281    17.0111    52.7428 CH2           1 RES     
    1717 CH2         14.6803    15.9868    51.6481 CH2           1 RES     
    1718 CH2         15.5190    16.6722    50.5534 CH2           1 RES     
    1719 CH2         15.8712    15.6479    49.4587 CH2           1 RES     
    1720 CH2         16.7099    16.3333    48.3641 CH2           1 RES     
    1721 CH2         17.0621    15.3090    47.2694 CH2           1 RES     
    1722 CH2         17.9009    15.9944    46.1747 CH2           1 RES     
    1723 CH2         18.2530    14.9701    45.0800 CH2           1 RES     
    1724 CH2         19.0918    15.6555    43.9853 CH2           1 RES     
    1725 CH2         19.4439    14.6312    42.8906 CH2           1 RES     
    1726 CH2         20.2827    15.3166    41.7959 CH2           1 RES     
    1727 CH2         20.6349    14.2923    40.7012 CH2           1 RES     
    1728 CH3         21.4355    14.9465    39.6563 CH3           1 RES     
    1729 CH3         54.7860     2.5000    67.0740 CH3           1 RES     
    1730 CH3         54.5265     0.1737    66.8419 CH3           1 RES     
    1731 CH3         52.7962     1.4846    67.1072 CH3           1 RES     
    1732 NL          54.0170     1.3889    66.6059 NL            1 RES     
    1733 CH2         53.7891     1.5603    65.2431 CH2           1 RES     
    1734 CH2         55.2229     1.4432    64.6934 CH2           1 RES     
    1735 OA          55.2022     1.6017    63.2170 OA            1 RES     
    1736 P           55.0118     0.1522    62.5668 P             1 RES     
    1737 OM          56.2752    -0.7235    63.0107 OM            1 RES     
    1738 OM          53.6033    -0.4046    63.0824 OM            1 RES     
    1739 OA          54.9845     0.2816    60.9722 OA            1 RES     
    1740 CH2         54.8069    -1.0790    60.4044 CH2           1 RES     
    1741 CH1         55.3921    -1.2078    59.1855 CH1           1 RES     
    1742 OE          56.5580    -1.7745    58.4924 OE            1 RES     
    1743 C           56.6887    -2.9048    59.4698 C             1 RES     
    1744 O           55.9489    -3.0785    60.4370 O             1 RES     
    1745 CH2         57.6626    -3.7245    58.8746 CH2           1 RES     
    1746 CH2         58.2410    -3.2384    57.5327 CH2           1 RES     
    1747 CH2         59.1405    -4.3353    56.9332 CH2           1 RES     
    1748 CH2         59.7190    -3.8492    55.5913 CH2           1 RES     
    1749 CH2         60.6185    -4.9461    54.9918 CH2           1 RES     
    1750 CH2         61.1969    -4.4601    53.6498 CH2           1 RES     
    1751 CH2         62.0964    -5.5569    53.0503 CH2           1 RES     
    1752 CH2         62.6748    -5.0709    51.7084 CH2           1 RES     
    1753 CH2         63.5743    -6.1677    51.1089 CH2           1 RES     
    1754 CH2         64.1527    -5.6817    49.7670 CH2           1 RES     
    1755 CH2         65.0522    -6.7785    49.1675 CH2           1 RES     
    1756 CH2         65.6306    -6.2925    47.8255 CH2           1 RES     
    1757 CH2         66.5301    -7.3894    47.2260 CH2           1 RES     
    1758 CH2         67.1085    -6.9033    45.8841 CH2           1 RES     
    1759 CH2         68.0080    -8.0002    45.2846 CH2           1 RES     
    1760 CH2         68.5865    -7.5141    43.9426 CH2           1 RES     
    1761 CH3         69.4451    -8.5611    43.3704 CH3           1 RES     
    1762 CH2         55.5617     0.3176    59.3123 CH2           1 RES     
    1763 OE          56.0217     0.7518    57.9916 OE            1 RES     
    1764 C           56.1358     2.2203    58.2753 C             1 RES     
    1765 O           55.8782     2.7427    59.3587 O             1 RES     
    1766 CH2         56.7669     2.7156    57.1216 CH2           1 RES     
    1767 CH2         57.1012     1.6852    56.0269 CH2           1 RES     
    1768 CH2         57.9517     2.3559    54.9322 CH2           1 RES     
    1769 CH2         58.2860     1.3256    53.8375 CH2           1 RES     
    1770 CH2         59.1365     1.9963    52.7428 CH2           1 RES     
    1771 CH2         59.4708     0.9660    51.6481 CH2           1 RES     
    1772 CH2         60.3214     1.6366    50.5534 CH2           1 RES     
    1773 CH2         60.6556     0.6063    49.4587 CH2           1 RES     
    1774 CH2         61.5062     1.2770    48.3641 CH2           1 RES     
    1775 CH2         61.8404     0.2467    47.2694 CH2           1 RES     
    1776 CH2         62.6910     0.9173    46.1747 CH2           1 RES     
    1777 CH2         63.0252    -0.1130    45.0800 CH2           1 RES     
    1778 CH2         63.8758     0.5577    43.9853 CH2           1 RES     
    1779 CH2         64.2100    -0.4726    42.8906 CH2           1 RES     
    1780 CH2         65.0606     0.1980    41.7959 CH2           1 RES     
    1781 CH2         65.3949    -0.8323    40.7012 CH2           1 RES     
    1782 CH3         66.2068    -0.1921    39.6563 CH3           1 RES     
    1783 CH3          2.5000    24.9083    67.0740 CH3           1 RES     
    1784 CH3          1.9486    22.6334    66.8419 CH3           1 RES     
    1785 CH3          0.3979    24.1525    67.1072 CH3           1 RES     
    1786 NL           1.5968    23.9033    66.6059 NL            1 RES     
    1787 CH2          1.3924    24.1021    65.2431 CH2           1 RES     
    1788 CH2          2.7999    23.8047    64.6934 CH2           1 RES     
    1789 OA           2.7994    23.9646    63.2170 OA            1 RES     
    1790 P            2.4273    22.5508    62.5668 P             1 RES     
    1791 OM           3.5699    21.5224    63.0107 OM            1 RES     
    1792 OM           0.9597    22.1764    63.0824 OM            1 RES     
    1793 OA           2.4166    22.6826    60.9722 OA            1 RES     
    1794 CH2          2.0685    21.3553    60.4044 CH2           1 RES     
    1795 CH1          2.6327    21.1536    59.1855 CH1           1 RES     
    1796 OE           3.7177    20.4441    58.4924 OE            1 RES     
    1797 C            3.7044    19.3063    59.4698 C             1 RES     
    1798 O            2.9486    19.2275    60.4370 O             1 RES     
    1799 CH2          4.5670    18.3702    58.8746 CH2           1 RES     
    1800 CH2          5.2021    18.7792    57.5327 CH2           1 RES     
    1801 CH2          5.9558    17.5775    56.9332 CH2           1 RES     
    1802 CH2          6.5910    17.9865    55.5913 CH2           1 RES     
    1803 CH2          7.3447    16.7848    54.9918 CH2           1 RES     
    1804 CH2          7.9799    17.1938    53.6498 CH2           1 RES     
    1805 CH2          8.7336    15.9921    53.0503 CH2           1 RES     
    1806 CH2          9.3688    16.4011    51.7084 CH2           1 RES     
    1807 CH2         10.1224    15.1994    51.1089 CH2           1 RES     
    1808 CH2         10.7576    15.6084    49.7670 CH2           1 RES     
    1809 CH2         11.5113    14.4067    49.1675 CH2           1 RES     
    1810 CH2         12.1465    14.8157    47.8255 CH2           1 RES     
    1811 CH2         12.9002    13.6140    47.2260 CH2           1 RES     
    1812 CH2         13.5354    14.0230    45.8841 CH2           1 RES     
    1813 CH2         14.2891    12.8213    45.2846 CH2           1 RES     
    1814 CH2         14.9243    13.2303    43.9426 CH2           1 RES     
    1815 CH3         15.6437    12.0832    43.3704 CH3           1 RES     
    1816 CH2          2.9937    22.6453    59.3123 CH2           1 RES     
    1817 OE           3.5049    23.0179    57.9916 OE            1 RES     
    1818 C            3.8037    24.4602    58.2753 C             1 RES     
    1819 O            3.6142    25.0110    59.3587 O             1 RES     
    1820 CH2          4.4923    24.8718    57.1216 CH2           1 RES     
    1821 CH2          4.6937    23.8075    56.0269 CH2           1 RES     
    1822 CH2          5.6222    24.3653    54.9322 CH2           1 RES     
    1823 CH2          5.8235    23.3010    53.8375 CH2           1 RES     
    1824 CH2          6.7520    23.8588    52.7428 CH2           1 RES     
    1825 CH2          6.9534    22.7945    51.6481 CH2           1 RES     
    1826 CH2          7.8819    23.3523    50.5534 CH2           1 RES     
    1827 CH2          8.0832    22.2880    49.4587 CH2           1 RES     
    1828 CH2          9.0118    22.8458    48.3641 CH2           1 RES     
    1829 CH2          9.2131    21.7815    47.2694 CH2           1 RES     
    1830 CH2         10.1416    22.3393    46.1747 CH2           1 RES     
    1831 CH2         10.3430    21.2750    45.0800 CH2           1 RES     
    1832 CH2         11.2715    21.8328    43.9853 CH2           1 RES     
    1833 CH2         11.4728    20.7685    42.8906 CH2           1 RES     
    1834 CH2         12.4013    21.3263    41.7959 CH2           1 RES     
    1835 CH2         12.6027    20.2620    40.7012 CH2           1 RES     
    1836 CH3         13.4890    20.7944    39.6563 CH3           1 RES     
    1837 CH3         39.8471    32.3777    67.0740 CH3           1 RES     
    1838 CH3         40.0305    30.0441    66.8419 CH3           1 RES     
    1839 CH3         38.0842    31.0058    67.1072 CH3           1 RES     
    1840 NL          39.3012    31.1417    66.6059 NL            1 RES     
    1841 CH2         39.0451    31.2670    65.2431 CH2           1 RES     
    1842 CH2         40.4753    31.4221    64.6934 CH2           1 RES     
    1843 OA          40.4251    31.5739    63.2170 OA            1 RES     
    1844 P           40.5111    30.1145    62.5668 P             1 RES     
    1845 OM          41.9168    29.4924    63.0107 OM            1 RES     
    1846 OM          39.2327    29.3023    63.0824 OM            1 RES     
    1847 OA          40.4599    30.2364    60.9722 OA            1 RES     
    1848 CH2         40.5418    28.8667    60.4044 CH2           1 RES     
    1849 CH1         41.1408    28.8504    59.1855 CH1           1 RES     
    1850 OE          42.3926    28.5135    58.4924 OE            1 RES     
    1851 C           42.7338    27.4280    59.4698 C             1 RES     
    1852 O           42.0399    27.1180    60.4370 O             1 RES     
    1853 CH2         43.8447    26.8065    58.8746 CH2           1 RES     
    1854 CH2         44.3212    27.3927    57.5327 CH2           1 RES     
    1855 CH2         45.4112    26.4849    56.9332 CH2           1 RES     
    1856 CH2         45.8877    27.0712    55.5913 CH2           1 RES     
    1857 CH2         46.9777    26.1634    54.9918 CH2           1 RES     
    1858 CH2         47.4542    26.7497    53.6498 CH2           1 RES     
    1859 CH2         48.5442    25.8419    53.0503 CH2           1 RES     
    1860 CH2         49.0207    26.4282    51.7084 CH2           1 RES     
    1861 CH2         50.1107    25.5204    51.1089 CH2           1 RES     
    1862 CH2         50.5872    26.1066    49.7670 CH2           1 RES     
    1863 CH2         51.6772    25.1988    49.1675 CH2           1 RES     
    1864 CH2         52.1537    25.7851    47.8255 CH2           1 RES     
    1865 CH2         53.2437    24.8773    47.2260 CH2           1 RES     
    1866 CH2         53.7202    25.4636    45.8841 CH2           1 RES     
    1867 CH2         54.8102    24.5558    45.2846 CH2           1 RES     
    1868 CH2         55.2867    25.1421    43.9426 CH2           1 RES     
    1869 CH3         56.3272    24.2755    43.3704 CH3           1 RES     
    1870 CH2         41.0200    30.3804    59.3123 CH2           1 RES     
    1871 OE          41.3900    30.8936    57.9916 OE            1 RES     
    1872 C           41.2255    32.3573    58.2753 C             1 RES     
    1873 O           40.8741    32.8217    59.3587 O             1 RES     
    1874 CH2         41.7520    32.9625    57.1216 CH2           1 RES     
    1875 CH2         42.2743    32.0136    56.0269 CH2           1 RES     
    1876 CH2         42.9834    32.8324    54.9322 CH2           1 RES     
    1877 CH2         43.5057    31.8835    53.8375 CH2           1 RES     
    1878 CH2         44.2147    32.7024    52.7428 CH2           1 RES     
    1879 CH2         44.7370    31.7535    51.6481 CH2           1 RES     
    1880 CH2         45.4461    32.5723    50.5534 CH2           1 RES     
    1881 CH2         45.9684    31.6234    49.4587 CH2           1 RES     
    1882 CH2         46.6774    32.4423    48.3641 CH2           1 RES     
    1883 CH2         47.1997    31.4934    47.2694 CH2           1 RES     
    1884 CH2         47.9087    32.3122    46.1747 CH2           1 RES     
    1885 CH2         48.4311    31.3633    45.0800 CH2           1 RES     
    1886 CH2         49.1401    32.1822    43.9853 CH2           1 RES     
    1887 CH2         49.6624    31.2333    42.8906 CH2           1 RES     
    1888 CH2         50.3714    32.0521    41.7959 CH2           1 RES     
    1889 CH2         50.8938    31.1032    40.7012 CH2           1 RES     
    1890 CH3         51.5706    31.8848    39.6563 CH3           1 RES     
    1891 CH3         32.3777     2.5000    67.0740 CH3           1 RES     
    1892 CH3         33.2562     0.3303    66.8419 CH3           1 RES     
    1893 CH3         31.1106     0.6603    67.1072 CH3           1 RES     
    1894 NL          32.2299     1.1569    66.6059 NL            1 RES     
    1895 CH2         31.9479     1.1992    65.2431 CH2           1 RES     
    1896 CH2         33.2648     1.7783    64.6934 CH2           1 RES     
    1897 OA          33.1712     1.9079    63.2170 OA            1 RES     
    1898 P           33.6932     0.5424    62.5668 P             1 RES     
    1899 OM          35.2211     0.3731    63.0107 OM            1 RES     
    1900 OM          32.7192    -0.6175    63.0824 OM            1 RES     
    1901 OA          33.6077     0.6431    60.9722 OA            1 RES     
    1902 CH2         34.0987    -0.6381    60.4044 CH2           1 RES     
    1903 CH1         34.6748    -0.4730    59.1855 CH1           1 RES     
    1904 OE          35.9699    -0.4168    58.4924 OE            1 RES     
    1905 C           36.6225    -1.3489    59.4698 C             1 RES     
    1906 O           36.0544    -1.8536    60.4370 O             1 RES     
    1907 CH2         37.8691    -1.6065    58.8746 CH2           1 RES     
    1908 CH2         38.1467    -0.9038    57.5327 CH2           1 RES     
    1909 CH2         39.4597    -1.4407    56.9332 CH2           1 RES     
    1910 CH2         39.7372    -0.7380    55.5913 CH2           1 RES     
    1911 CH2         41.0502    -1.2749    54.9918 CH2           1 RES     
    1912 CH2         41.3278    -0.5722    53.6498 CH2           1 RES     
    1913 CH2         42.6408    -1.1091    53.0503 CH2           1 RES     
    1914 CH2         42.9183    -0.4064    51.7084 CH2           1 RES     
    1915 CH2         44.2313    -0.9433    51.1089 CH2           1 RES     
    1916 CH2         44.5088    -0.2406    49.7670 CH2           1 RES     
    1917 CH2         45.8219    -0.7775    49.1675 CH2           1 RES     
    1918 CH2         46.0994    -0.0748    47.8255 CH2           1 RES     
    1919 CH2         47.4124    -0.6117    47.2260 CH2           1 RES     
    1920 CH2         47.6899     0.0910    45.8841 CH2           1 RES     
    1921 CH2         49.0029    -0.4459    45.2846 CH2           1 RES     
    1922 CH2         49.2805     0.2568    43.9426 CH2           1 RES     
    1923 CH3         50.5338    -0.2557    43.3704 CH3           1 RES     
    1924 CH2         34.0982     0.9494    59.3123 CH2           1 RES     
    1925 OE          34.2963     1.5502    57.9916 OE            1 RES     
    1926 C           33.6981     2.8961    58.2753 C             1 RES     
    1927 O           33.2230     3.2331    59.3587 O             1 RES     
    1928 CH2         34.0176     3.6320    57.1216 CH2           1 RES     
    1929 CH2         34.8017     2.8847    56.0269 CH2           1 RES     
    1930 CH2         35.2308     3.8793    54.9322 CH2           1 RES     
    1931 CH2         36.0150     3.1320    53.8375 CH2           1 RES     
    1932 CH2         36.4441     4.1266    52.7428 CH2           1 RES     
    1933 CH2         37.2282     3.3793    51.6481 CH2           1 RES     
    1934 CH2         37.6573     4.3739    50.5534 CH2           1 RES     
    1935 CH2         38.4415     3.6266    49.4587 CH2           1 RES     
    1936 CH2         38.8706     4.6212    48.3641 CH2           1 RES     
    1937 CH2         39.6547     3.8739    47.2694 CH2           1 RES     
    1938 CH2         40.0838     4.8685    46.1747 CH2           1 RES     
    1939 CH2         40.8680     4.1212    45.0800 CH2           1 RES     
    1940 CH2         41.2971     5.1158    43.9853 CH2           1 RES     
    1941 CH2         42.0812     4.3685    42.8906 CH2           1 RES     
    1942 CH2         42.5103     5.3631    41.7959 CH2           1 RES     
    1943 CH2         43.2945     4.6158    40.7012 CH2           1 RES     
    1944 CH3         43.7041     5.5652    39.6563 CH3           1 RES     
    1945 CH3         17.4388    54.7860    67.0740 CH3           1 RES     
    1946 CH3         16.8733    52.5146    66.8419 CH3           1 RES     
    1947 CH3         15.3321    54.0433    67.1072 CH3           1 RES     
    1948 NL          16.5294    53.7866    66.6059 NL            1 RES     
    1949 CH2         16.3262    53.9867    65.2431 CH2           1 RES     
    1950 CH2         17.7318    53.6806    64.6934 CH2           1 RES     
    1951 OA          17.7323    53.8404    63.2170 OA            1 RES     
    1952 P           17.3515    52.4290    62.5668 P             1 RES     
    1953 OM          18.4876    51.3935    63.0107 OM            1 RES     
    1954 OM          15.8815    52.0637    63.0824 OM            1 RES     
    1955 OA          17.3416    52.5608    60.9722 OA            1 RES     
    1956 CH2         16.9852    51.2357    60.4044 CH2           1 RES     
    1957 CH1         17.5482    51.0305    59.1855 CH1           1 RES     
    1958 OE          18.6287    50.3143    58.4924 OE            1 RES     
    1959 C           18.6083    49.1766    59.4698 C             1 RES     
    1960 O           17.8520    49.1025    60.4370 O             1 RES     
    1961 CH2         19.4650    48.2351    58.8746 CH2           1 RES     
    1962 CH2         20.1027    48.6402    57.5327 CH2           1 RES     
    1963 CH2         20.8489    47.4338    56.9332 CH2           1 RES     
    1964 CH2         21.4866    47.8389    55.5913 CH2           1 RES     
    1965 CH2         22.2328    46.6324    54.9918 CH2           1 RES     
    1966 CH2         22.8706    47.0375    53.6498 CH2           1 RES     
    1967 CH2         23.6167    45.8311    53.0503 CH2           1 RES     
    1968 CH2         24.2545    46.2362    51.7084 CH2           1 RES     
    1969 CH2         25.0006    45.0298    51.1089 CH2           1 RES     
    1970 CH2         25.6384    45.4348    49.7670 CH2           1 RES     
    1971 CH2         26.3845    44.2284    49.1675 CH2           1 RES     
    1972 CH2         27.0223    44.6335    47.8255 CH2           1 RES     
    1973 CH2         27.7684    43.4271    47.2260 CH2           1 RES     
    1974 CH2         28.4062    43.8322    45.8841 CH2           1 RES     
    1975 CH2         29.1523    42.6257    45.2846 CH2           1 RES     
    1976 CH2         29.7901    43.0308    43.9426 CH2           1 RES     
    1977 CH3         30.5023    41.8792    43.3704 CH3           1 RES     
    1978 CH2         17.9184    52.5200    59.3123 CH2           1 RES     
    1979 OE          18.4319    52.8894    57.9916 OE            1 RES     
    1980 C           18.7397    54.3298    58.2753 C             1 RES     
    1981 O           18.5537    54.8817    59.3587 O             1 RES     
    1982 CH2         19.4309    54.7370    57.1216 CH2           1 RES     
    1983 CH2         19.6256    53.6715    56.0269 CH2           1 RES     
    1984 CH2         20.5576    54.2235    54.9322 CH2           1 RES     
    1985 CH2         20.7523    53.1580    53.8375 CH2           1 RES     
    1986 CH2         21.6843    53.7100    52.7428 CH2           1 RES     
    1987 CH2         21.8790    52.6444    51.6481 CH2           1 RES     
    1988 CH2         22.8109    53.1964    50.5534 CH2           1 RES     
    1989 CH2         23.0057    52.1309    49.4587 CH2           1 RES     
    1990 CH2         23.9376    52.6829    48.3641 CH2           1 RES     
    1991 CH2         24.1323    51.6174    47.2694 CH2           1 RES     
    1992 CH2         25.0643    52.1694    46.1747 CH2           1 RES     
    1993 CH2         25.2590    51.1039    45.0800 CH2           1 RES     
    1994 CH2         26.1910    51.6558    43.9853 CH2           1 RES     
    1995 CH2         26.3857    50.5903    42.8906 CH2           1 RES     
    1996 CH2         27.3177    51.1423    41.7959 CH2           1 RES     
    1997 CH2         27.5124    50.0768    40.7012 CH2           1 RES     
    1998 CH3         28.4020    50.6037    39.6563 CH3           1 RES     
    1999 CH3         17.4388    24.9083    67.0740 CH3           1 RES     
    2000 CH3         18.7358    22.9597    66.8419 CH3           1 RES     
    2001 CH3         16.5676    22.8513    67.1072 CH3           1 RES     
    2002 NL          17.5642    23.5629    66.6059 NL            1 RES     
    2003 CH2         17.2795    23.5476    65.2431 CH2           1 RES     
    2004 CH2         18.4530    24.3798    64.6934 CH2           1 RES     
    2005 OA          18.3352    24.4878    63.2170 OA            1 RES     
    2006 P           19.1213    23.2553    62.5668 P             1 RES     
    2007 OM          20.6519    23.3968    63.0107 OM            1 RES     
    2008 OM          18.4005    21.9231    63.0824 OM            1 RES     
    2009 OA          19.0172    23.3368    60.9722 OA            1 RES     
    2010 CH2         19.7559    22.1805    60.4044 CH2           1 RES     
    2011 CH1         20.2870    22.4581    59.1855 CH1           1 RES     
    2012 OE          21.5443    22.7736    58.4924 OE            1 RES     
    2013 C           22.3711    21.9919    59.4698 C             1 RES     
    2014 O           21.9162    21.3832    60.4370 O             1 RES     
    2015 CH2         23.6440    21.9903    58.8746 CH2           1 RES     
    2016 CH2         23.7746    22.7344    57.5327 CH2           1 RES     
    2017 CH2         25.1687    22.4726    56.9332 CH2           1 RES     
    2018 CH2         25.2993    23.2168    55.5913 CH2           1 RES     
    2019 CH2         26.6934    22.9550    54.9918 CH2           1 RES     
    2020 CH2         26.8239    23.6991    53.6498 CH2           1 RES     
    2021 CH2         28.2181    23.4373    53.0503 CH2           1 RES     
    2022 CH2         28.3486    24.1815    51.7084 CH2           1 RES     
    2023 CH2         29.7428    23.9197    51.1089 CH2           1 RES     
    2024 CH2         29.8733    24.6638    49.7670 CH2           1 RES     
    2025 CH2         31.2675    24.4020    49.1675 CH2           1 RES     
    2026 CH2         31.3980    25.1462    47.8255 CH2           1 RES     
    2027 CH2         32.7922    24.8844    47.2260 CH2           1 RES     
    2028 CH2         32.9227    25.6285    45.8841 CH2           1 RES     
    2029 CH2         34.3169    25.3667    45.2846 CH2           1 RES     
    2030 CH2         34.4474    26.1109    43.9426 CH2           1 RES     
    2031 CH3         35.7782    25.8610    43.3704 CH3           1 RES     
    2032 CH2         19.4361    23.7354    59.3123 CH2           1 RES     
    2033 OE          19.5093    24.3638    57.9916 OE            1 RES     
    2034 C           18.6525    25.5619    58.2753 C             1 RES     
    2035 O           18.1194    25.7964    59.3587 O             1 RES     
    2036 CH2         18.8175    26.3470    57.1216 CH2           1 RES     
    2037 CH2         19.7359    25.7727    56.0269 CH2           1 RES     
    2038 CH2         19.9562    26.8333    54.9322 CH2           1 RES     
    2039 CH2         20.8747    26.2590    53.8375 CH2           1 RES     
    2040 CH2         21.0949    27.3195    52.7428 CH2           1 RES     
    2041 CH2         22.0134    26.7453    51.6481 CH2           1 RES     
    2042 CH2         22.2336    27.8058    50.5534 CH2           1 RES     
    2043 CH2         23.1521    27.2316    49.4587 CH2           1 RES     
    2044 CH2         23.3724    28.2921    48.3641 CH2           1 RES     
    2045 CH2         24.2908    27.7179    47.2694 CH2           1 RES     
    2046 CH2         24.5111    28.7784    46.1747 CH2           1 RES     
    2047 CH2         25.4295    28.2042    45.0800 CH2           1 RES     
    2048 CH2         25.6498    29.2647    43.9853 CH2           1 RES     
    2049 CH2         26.5682    28.6904    42.8906 CH2           1 RES     
    2050 CH2         26.7885    29.7510    41.7959 CH2           1 RES     
    2051 CH2         27.7069    29.1767    40.7012 CH2           1 RES     
    2052 CH3         27.9172    30.1890    39.6563 CH3           1 RES     
    2053 CH3         17.4388     2.5000    67.0740 CH3           1 RES     
    2054 CH3         18.0799     0.2487    66.8419 CH3           1 RES     
    2055 CH3         15.9820     0.8066    67.1072 CH3           1 RES     
    2056 NL          17.1481     1.1804    66.6059 NL            1 RES     
    2057 CH2         16.8723     1.2527    65.2431 CH2           1 RES     
    2058 CH2         18.2435     1.6875    64.6934 CH2           1 RES     
    2059 OA          18.1644     1.8263    63.2170 OA            1 RES     
    2060 P           18.5372     0.4127    62.5668 P             1 RES     
    2061 OM          20.0381     0.0808    63.0107 OM            1 RES     
    2062 OM          17.4446    -0.6362    63.0824 OM            1 RES     
    2063 OA          18.4629     0.5221    60.9722 OA            1 RES     
    2064 CH2         18.8140    -0.8044    60.4044 CH2           1 RES     
    2065 CH1         19.4043    -0.7019    59.1855 CH1           1 RES     
    2066 OE          20.6980    -0.7847    58.4924 OE            1 RES     
    2067 C           21.2471    -1.7813    59.4698 C             1 RES     
    2068 O           20.6282    -2.2223    60.4370 O             1 RES     
    2069 CH2         22.4589    -2.1709    58.8746 CH2           1 RES     
    2070 CH2         22.8101    -1.5020    57.5327 CH2           1 RES     
    2071 CH2         24.0581    -2.1764    56.9332 CH2           1 RES     
    2072 CH2         24.4093    -1.5075    55.5913 CH2           1 RES     
    2073 CH2         25.6573    -2.1819    54.9918 CH2           1 RES     
    2074 CH2         26.0084    -1.5130    53.6498 CH2           1 RES     
    2075 CH2         27.2564    -2.1874    53.0503 CH2           1 RES     
    2076 CH2         27.6076    -1.5185    51.7084 CH2           1 RES     
    2077 CH2         28.8556    -2.1928    51.1089 CH2           1 RES     
    2078 CH2         29.2068    -1.5239    49.7670 CH2           1 RES     
    2079 CH2         30.4547    -2.1983    49.1675 CH2           1 RES     
    2080 CH2         30.8059    -1.5294    47.8255 CH2           1 RES     
    2081 CH2         32.0539    -2.2038    47.2260 CH2           1 RES     
    2082 CH2         32.4051    -1.5349    45.8841 CH2           1 RES     
    2083 CH2         33.6530    -2.2093    45.2846 CH2           1 RES     
    2084 CH2         34.0042    -1.5403    43.9426 CH2           1 RES     
    2085 CH3         35.1955    -2.1841    43.3704 CH3           1 RES     
    2086 CH2         18.9834     0.7740    59.3123 CH2           1 RES     
    2087 OE          19.2447     1.3502    57.9916 OE            1 RES     
    2088 C           18.7940     2.7525    58.2753 C             1 RES     
    2089 O           18.3578     3.1383    59.3587 O             1 RES     
    2090 CH2         19.1905     3.4499    57.1216 CH2           1 RES     
    2091 CH2         19.8901     2.6229    56.0269 CH2           1 RES     
    2092 CH2         20.4233     3.5658    54.9322 CH2           1 RES     
    2093 CH2         21.1229     2.7389    53.8375 CH2           1 RES     
    2094 CH2         21.6560     3.6818    52.7428 CH2           1 RES     
    2095 CH2         22.3556     2.8549    51.6481 CH2           1 RES     
    2096 CH2         22.8888     3.7977    50.5534 CH2           1 RES     
    2097 CH2         23.5884     2.9708    49.4587 CH2           1 RES     
    2098 CH2         24.1215     3.9137    48.3641 CH2           1 RES     
    2099 CH2         24.8212     3.0868    47.2694 CH2           1 RES     
    2100 CH2         25.3543     4.0296    46.1747 CH2           1 RES     
    2101 CH2         26.0539     3.2027    45.0800 CH2           1 RES     
    2102 CH2         26.5870     4.1456    43.9853 CH2           1 RES     
    2103 CH2         27.2867     3.3187    42.8906 CH2           1 RES     
    2104 CH2         27.8198     4.2616    41.7959 CH2           1 RES     
    2105 CH2         28.5194     3.4346    40.7012 CH2           1 RES     
    2106 CH3         29.0283     4.3347    39.6563 CH3           1 RES     
    2107 CH3         47.3165    32.3777    67.0740 CH3           1 RES     
    2108 CH3         47.8829    30.1065    66.8419 CH3           1 RES     
    2109 CH3         45.8046    30.7333    67.1072 CH3           1 RES     
    2110 NL          46.9823    31.0685    66.6059 NL            1 RES     
    2111 CH2         46.7091    31.1498    65.2431 CH2           1 RES     
    2112 CH2         48.0940    31.5390    64.6934 CH2           1 RES     
    2113 OA          48.0194    31.6804    63.2170 OA            1 RES     
    2114 P           48.3454    30.2553    62.5668 P             1 RES     
    2115 OM          49.8345    29.8740    63.0107 OM            1 RES     
    2116 OM          47.2187    29.2430    63.0824 OM            1 RES     
    2117 OA          48.2747    30.3671    60.9722 OA            1 RES     
    2118 CH2         48.5818    29.0297    60.4044 CH2           1 RES     
    2119 CH1         49.1752    29.1126    59.1855 CH1           1 RES     
    2120 OE          50.4655    28.9871    58.4924 OE            1 RES     
    2121 C           50.9813    27.9729    59.4698 C             1 RES     
    2122 O           50.3482    27.5526    60.4370 O             1 RES     
    2123 CH2         52.1796    27.5435    58.8746 CH2           1 RES     
    2124 CH2         52.5527    28.2005    57.5327 CH2           1 RES     
    2125 CH2         53.7777    27.4852    56.9332 CH2           1 RES     
    2126 CH2         54.1508    28.1422    55.5913 CH2           1 RES     
    2127 CH2         55.3759    27.4270    54.9918 CH2           1 RES     
    2128 CH2         55.7490    28.0839    53.6498 CH2           1 RES     
    2129 CH2         56.9740    27.3687    53.0503 CH2           1 RES     
    2130 CH2         57.3471    28.0256    51.7084 CH2           1 RES     
    2131 CH2         58.5721    27.3104    51.1089 CH2           1 RES     
    2132 CH2         58.9452    27.9674    49.7670 CH2           1 RES     
    2133 CH2         60.1702    27.2521    49.1675 CH2           1 RES     
    2134 CH2         60.5433    27.9091    47.8255 CH2           1 RES     
    2135 CH2         61.7683    27.1938    47.2260 CH2           1 RES     
    2136 CH2         62.1414    27.8508    45.8841 CH2           1 RES     
    2137 CH2         63.3664    27.1356    45.2846 CH2           1 RES     
    2138 CH2         63.7395    27.7925    43.9426 CH2           1 RES     
    2139 CH3         64.9088    27.1098    43.3704 CH3           1 RES     
    2140 CH2         48.8033    30.6017    59.3123 CH2           1 RES     
    2141 OE          49.0834    31.1689    57.9916 OE            1 RES     
    2142 C           48.6793    32.5853    58.2753 C             1 RES     
    2143 O           48.2561    32.9853    59.3587 O             1 RES     
    2144 CH2         49.0986    33.2692    57.1216 CH2           1 RES     
    2145 CH2         49.7706    32.4196    56.0269 CH2           1 RES     
    2146 CH2         50.3346    33.3444    54.9322 CH2           1 RES     
    2147 CH2         51.0065    32.4948    53.8375 CH2           1 RES     
    2148 CH2         51.5705    33.4196    52.7428 CH2           1 RES     
    2149 CH2         52.2424    32.5700    51.6481 CH2           1 RES     
    2150 CH2         52.8064    33.4947    50.5534 CH2           1 RES     
    2151 CH2         53.4783    32.6452    49.4587 CH2           1 RES     
    2152 CH2         54.0423    33.5699    48.3641 CH2           1 RES     
    2153 CH2         54.7142    32.7204    47.2694 CH2           1 RES     
    2154 CH2         55.2782    33.6451    46.1747 CH2           1 RES     
    2155 CH2         55.9501    32.7955    45.0800 CH2           1 RES     
    2156 CH2         56.5141    33.7203    43.9853 CH2           1 RES     
    2157 CH2         57.1860    32.8707    42.8906 CH2           1 RES     
    2158 CH2         57.7500    33.7955    41.7959 CH2           1 RES     
    2159 CH2         58.4219    32.9459    40.7012 CH2           1 RES     
    2160 CH3         58.9603    33.8286    39.6563 CH3           1 RES     
    2161 CH3         47.3165     2.5000    67.0740 CH3           1 RES     
    2162 CH3         46.7822     0.2210    66.8419 CH3           1 RES     
    2163 CH3         45.2202     1.7285    67.1072 CH3           1 RES     
    2164 NL          46.4209     1.4883    66.6059 NL            1 RES     
    2165 CH2         46.2150     1.6855    65.2431 CH2           1 RES     
    2166 CH2         47.6247     1.3987    64.6934 CH2           1 RES     
    2167 OA          47.6230     1.5585    63.2170 OA            1 RES     
    2168 P           47.2615     0.1420    62.5668 P             1 RES     
    2169 OM          48.4117    -0.8777    63.0107 OM            1 RES     
    2170 OM          45.7967    -0.2433    63.0824 OM            1 RES     
    2171 OA          47.2498     0.2737    60.9722 OA            1 RES     
    2172 CH2         46.9116    -1.0561    60.4044 CH2           1 RES     
    2173 CH1         47.4773    -1.2536    59.1855 CH1           1 RES     
    2174 OE          48.5676    -1.9550    58.4924 OE            1 RES     
    2175 C           48.5628    -3.0928    59.4698 C             1 RES     
    2176 O           47.8076    -3.1773    60.4370 O             1 RES     
    2177 CH2         49.4324    -4.0225    58.8746 CH2           1 RES     
    2178 CH2         50.0645    -3.6087    57.5327 CH2           1 RES     
    2179 CH2         50.8271    -4.8047    56.9332 CH2           1 RES     
    2180 CH2         51.4592    -4.3910    55.5913 CH2           1 RES     
    2181 CH2         52.2219    -5.5870    54.9918 CH2           1 RES     
    2182 CH2         52.8540    -5.1732    53.6498 CH2           1 RES     
    2183 CH2         53.6166    -6.3693    53.0503 CH2           1 RES     
    2184 CH2         54.2488    -5.9555    51.7084 CH2           1 RES     
    2185 CH2         55.0114    -7.1516    51.1089 CH2           1 RES     
    2186 CH2         55.6435    -6.7378    49.7670 CH2           1 RES     
    2187 CH2         56.4062    -7.9339    49.1675 CH2           1 RES     
    2188 CH2         57.0383    -7.5201    47.8255 CH2           1 RES     
    2189 CH2         57.8009    -8.7162    47.2260 CH2           1 RES     
    2190 CH2         58.4331    -8.3024    45.8841 CH2           1 RES     
    2191 CH2         59.1957    -9.4984    45.2846 CH2           1 RES     
    2192 CH2         59.8278    -9.0847    43.9426 CH2           1 RES     
    2193 CH3         60.5558   -10.2264    43.3704 CH3           1 RES     
    2194 CH2         47.8271     0.2408    59.3123 CH2           1 RES     
    2195 OE          48.3355     0.6172    57.9916 OE            1 RES     
    2196 C           48.6235     2.0617    58.2753 C             1 RES     
    2197 O           48.4299     2.6110    59.3587 O             1 RES     
    2198 CH2         49.3091     2.4784    57.1216 CH2           1 RES     
    2199 CH2         49.5184     1.4156    56.0269 CH2           1 RES     
    2200 CH2         50.4427     1.9804    54.9322 CH2           1 RES     
    2201 CH2         50.6520     0.9176    53.8375 CH2           1 RES     
    2202 CH2         51.5763     1.4823    52.7428 CH2           1 RES     
    2203 CH2         51.7856     0.4196    51.6481 CH2           1 RES     
    2204 CH2         52.7099     0.9843    50.5534 CH2           1 RES     
    2205 CH2         52.9192    -0.0785    49.4587 CH2           1 RES     
    2206 CH2         53.8435     0.4863    48.3641 CH2           1 RES     
    2207 CH2         54.0529    -0.5765    47.2694 CH2           1 RES     
    2208 CH2         54.9772    -0.0118    46.1747 CH2           1 RES     
    2209 CH2         55.1865    -1.0745    45.0800 CH2           1 RES     
    2210 CH2         56.1108    -0.5098    43.9853 CH2           1 RES     
    2211 CH2         56.3201    -1.5726    42.8906 CH2           1 RES     
    2212 CH2         57.2444    -1.0078    41.7959 CH2           1 RES     
    2213 CH2         57.4537    -2.0706    40.7012 CH2           1 RES     
    2214 CH3         58.3360    -1.5315    39.6563 CH3           1 RES     
    2215 CH3         47.3165    47.3165    67.0740 CH3           1 RES     
    2216 CH3         48.2724    45.1798    66.8419 CH3           1 RES     
    2217 CH3         46.1163    45.4325    67.1072 CH3           1 RES     
    2218 NL          47.2171    45.9690    66.6059 NL            1 RES     
    2219 CH2         46.9338    46.0011    65.2431 CH2           1 RES     
    2220 CH2         48.2290    46.6272    64.6934 CH2           1 RES     
    2221 OA          48.1308    46.7533    63.2170 OA            1 RES     
    2222 P           48.7016    45.4074    62.5668 P             1 RES     
    2223 OM          50.2345    45.2932    63.0107 OM            1 RES     
    2224 OM          47.7699    44.2133    63.0824 OM            1 RES     
    2225 OA          48.6124    45.5051    60.9722 OA            1 RES     
    2226 CH2         49.1492    44.2423    60.4044 CH2           1 RES     
    2227 CH1         49.7190    44.4280    59.1855 CH1           1 RES     
    2228 OE          51.0112    44.5307    58.4924 OE            1 RES     
    2229 C           51.6969    43.6226    59.4698 C             1 RES     
    2230 O           51.1473    43.0978    60.4370 O             1 RES     
    2231 CH2         52.9520    43.4100    58.8746 CH2           1 RES     
    2232 CH2         53.2041    44.1222    57.5327 CH2           1 RES     
    2233 CH2         54.5355    43.6329    56.9332 CH2           1 RES     
    2234 CH2         54.7876    44.3451    55.5913 CH2           1 RES     
    2235 CH2         56.1191    43.8557    54.9918 CH2           1 RES     
    2236 CH2         56.3712    44.5679    53.6498 CH2           1 RES     
    2237 CH2         57.7027    44.0786    53.0503 CH2           1 RES     
    2238 CH2         57.9548    44.7907    51.7084 CH2           1 RES     
    2239 CH2         59.2862    44.3014    51.1089 CH2           1 RES     
    2240 CH2         59.5383    45.0136    49.7670 CH2           1 RES     
    2241 CH2         60.8698    44.5242    49.1675 CH2           1 RES     
    2242 CH2         61.1219    45.2364    47.8255 CH2           1 RES     
    2243 CH2         62.4533    44.7471    47.2260 CH2           1 RES     
    2244 CH2         62.7055    45.4593    45.8841 CH2           1 RES     
    2245 CH2         64.0369    44.9699    45.2846 CH2           1 RES     
    2246 CH2         64.2890    45.6821    43.9426 CH2           1 RES     
    2247 CH3         65.5600    45.2150    43.3704 CH3           1 RES     
    2248 CH2         49.0917    45.8287    59.3123 CH2           1 RES     
    2249 OE          49.2680    46.4363    57.9916 OE            1 RES     
    2250 C           48.6218    47.7599    58.2753 C             1 RES     
    2251 O           48.1350    48.0795    59.3587 O             1 RES     
    2252 CH2         48.9147    48.5067    57.1216 CH2           1 RES     
    2253 CH2         49.7252    47.7881    56.0269 CH2           1 RES     
    2254 CH2         50.1183    48.7975    54.9322 CH2           1 RES     
    2255 CH2         50.9288    48.0789    53.8375 CH2           1 RES     
    2256 CH2         51.3219    49.0882    52.7428 CH2           1 RES     
    2257 CH2         52.1323    48.3696    51.6481 CH2           1 RES     
    2258 CH2         52.5254    49.3789    50.5534 CH2           1 RES     
    2259 CH2         53.3359    48.6603    49.4587 CH2           1 RES     
    2260 CH2         53.7290    49.6697    48.3641 CH2           1 RES     
    2261 CH2         54.5395    48.9511    47.2694 CH2           1 RES     
    2262 CH2         54.9326    49.9604    46.1747 CH2           1 RES     
    2263 CH2         55.7431    49.2418    45.0800 CH2           1 RES     
    2264 CH2         56.1362    50.2511    43.9853 CH2           1 RES     
    2265 CH2         56.9467    49.5325    42.8906 CH2           1 RES     
    2266 CH2         57.3398    50.5419    41.7959 CH2           1 RES     
    2267 CH2         58.1502    49.8233    40.7012 CH2           1 RES     
    2268 CH3         58.5255    50.7867    39.6563 CH3           1 RES     
    2269 CH3          2.5000    39.8471    67.0740 CH3           1 RES     
    2270 CH3          2.8856    37.5383    66.8419 CH3           1 RES     
    2271 CH3          0.8631    38.3271    67.1072 CH3           1 RES     
    2272 NL           2.0636    38.5683    66.6059 NL            1 RES     
    2273 CH2          1.7976    38.6709    65.2431 CH2           1 RES     
    2274 CH2          3.2089    38.9498    64.6934 CH2           1 RES     
    2275 OA           3.1457    39.0966    63.2170 OA            1 RES     
    2276 P            3.3583    37.6502    62.5668 P             1 RES     
    2277 OM           4.8127    37.1527    63.0107 OM            1 RES     
    2278 OM           2.1553    36.7299    63.0824 OM            1 RES     
    2279 OA           3.2967    37.7672    60.9722 OA            1 RES     
    2280 CH2          3.4973    36.4098    60.4044 CH2           1 RES     
    2281 CH1          4.0955    36.4457    59.1855 CH1           1 RES     
    2282 OE           5.3718    36.2188    58.4924 OE            1 RES     
    2283 C            5.8061    35.1671    59.4698 C             1 RES     
    2284 O            5.1418    34.7980    60.4370 O             1 RES     
    2285 CH2          6.9668    34.6446    58.8746 CH2           1 RES     
    2286 CH2          7.3905    35.2701    57.5327 CH2           1 RES     
    2287 CH2          8.5553    34.4605    56.9332 CH2           1 RES     
    2288 CH2          8.9791    35.0860    55.5913 CH2           1 RES     
    2289 CH2         10.1439    34.2764    54.9918 CH2           1 RES     
    2290 CH2         10.5676    34.9019    53.6498 CH2           1 RES     
    2291 CH2         11.7324    34.0923    53.0503 CH2           1 RES     
    2292 CH2         12.1561    34.7178    51.7084 CH2           1 RES     
    2293 CH2         13.3209    33.9082    51.1089 CH2           1 RES     
    2294 CH2         13.7447    34.5337    49.7670 CH2           1 RES     
    2295 CH2         14.9095    33.7241    49.1675 CH2           1 RES     
    2296 CH2         15.3332    34.3496    47.8255 CH2           1 RES     
    2297 CH2         16.4980    33.5400    47.2260 CH2           1 RES     
    2298 CH2         16.9218    34.1655    45.8841 CH2           1 RES     
    2299 CH2         18.0866    33.3559    45.2846 CH2           1 RES     
    2300 CH2         18.5103    33.9814    43.9426 CH2           1 RES     
    2301 CH3         19.6221    33.2086    43.3704 CH3           1 RES     
    2302 CH2          3.8421    37.9594    59.3123 CH2           1 RES     
    2303 OE           4.1661    38.5028    57.9916 OE            1 RES     
    2304 C            3.8749    39.9466    58.2753 C             1 RES     
    2305 O            3.4845    40.3788    59.3587 O             1 RES     
    2306 CH2          4.3468    40.5953    57.1216 CH2           1 RES     
    2307 CH2          4.9497    39.6954    56.0269 CH2           1 RES     
    2308 CH2          5.5848    40.5728    54.9322 CH2           1 RES     
    2309 CH2          6.1877    39.6729    53.8375 CH2           1 RES     
    2310 CH2          6.8228    40.5504    52.7428 CH2           1 RES     
    2311 CH2          7.4257    39.6504    51.6481 CH2           1 RES     
    2312 CH2          8.0608    40.5279    50.5534 CH2           1 RES     
    2313 CH2          8.6637    39.6280    49.4587 CH2           1 RES     
    2314 CH2          9.2988    40.5054    48.3641 CH2           1 RES     
    2315 CH2          9.9016    39.6055    47.2694 CH2           1 RES     
    2316 CH2         10.5368    40.4829    46.1747 CH2           1 RES     
    2317 CH2         11.1396    39.5830    45.0800 CH2           1 RES     
    2318 CH2         11.7748    40.4604    43.9853 CH2           1 RES     
    2319 CH2         12.3776    39.5605    42.8906 CH2           1 RES     
    2320 CH2         13.0128    40.4379    41.7959 CH2           1 RES     
    2321 CH2         13.6156    39.5380    40.7012 CH2           1 RES     
    2322 CH3         14.2219    40.3755    39.6563 CH3           1 RES     
    2323 CH3          2.5000     9.9694    67.0740 CH3           1 RES     
    2324 CH3          2.3095     7.6364    66.8419 CH3           1 RES     
    2325 CH3          0.5412     8.8957    67.1072 CH3           1 RES     
    2326 NL           1.7642     8.8361    66.6059 NL            1 RES     
    2327 CH2          1.5314     9.0006    65.2431 CH2           1 RES     
    2328 CH2          2.9680     8.9260    64.6934 CH2           1 RES     
    2329 OA           2.9426     9.0838    63.2170 OA            1 RES     
    2330 P            2.7952     7.6294    62.5668 P             1 RES     
    2331 OM           4.0839     6.7914    63.0107 OM            1 RES     
    2332 OM           1.4037     7.0311    63.0824 OM            1 RES     
    2333 OA           2.7641     7.7579    60.9722 OA            1 RES     
    2334 CH2          2.6268     6.3926    60.4044 CH2           1 RES     
    2335 CH1          3.2156     6.2812    59.1855 CH1           1 RES     
    2336 OE           4.3977     5.7492    58.4924 OE            1 RES     
    2337 C            4.5617     4.6232    59.4698 C             1 RES     
    2338 O            3.8274     4.4277    60.4370 O             1 RES     
    2339 CH2          5.5595     3.8328    58.8746 CH2           1 RES     
    2340 CH2          6.1233     4.3357    57.5327 CH2           1 RES     
    2341 CH2          7.0548     3.2659    56.9332 CH2           1 RES     
    2342 CH2          7.6186     3.7689    55.5913 CH2           1 RES     
    2343 CH2          8.5502     2.6991    54.9918 CH2           1 RES     
    2344 CH2          9.1139     3.2020    53.6498 CH2           1 RES     
    2345 CH2         10.0455     2.1323    53.0503 CH2           1 RES     
    2346 CH2         10.6093     2.6352    51.7084 CH2           1 RES     
    2347 CH2         11.5408     1.5654    51.1089 CH2           1 RES     
    2348 CH2         12.1046     2.0683    49.7670 CH2           1 RES     
    2349 CH2         13.0362     0.9986    49.1675 CH2           1 RES     
    2350 CH2         13.6000     1.5015    47.8255 CH2           1 RES     
    2351 CH2         14.5315     0.4317    47.2260 CH2           1 RES     
    2352 CH2         15.0953     0.9347    45.8841 CH2           1 RES     
    2353 CH2         16.0268    -0.1351    45.2846 CH2           1 RES     
    2354 CH2         16.5906     0.3678    43.9426 CH2           1 RES     
    2355 CH3         17.4798    -0.6533    43.3704 CH3           1 RES     
    2356 CH2          3.3399     7.8109    59.3123 CH2           1 RES     
    2357 OE           3.7869     8.2586    57.9916 OE            1 RES     
    2358 C            3.8575     9.7298    58.2753 C             1 RES     
    2359 O            3.5846    10.2443    59.3587 O             1 RES     
    2360 CH2          4.4737    10.2435    57.1216 CH2           1 RES     
    2361 CH2          4.8383     9.2235    56.0269 CH2           1 RES     
    2362 CH2          5.6686     9.9190    54.9322 CH2           1 RES     
    2363 CH2          6.0332     8.8991    53.8375 CH2           1 RES     
    2364 CH2          6.8636     9.5946    52.7428 CH2           1 RES     
    2365 CH2          7.2281     8.5746    51.6481 CH2           1 RES     
    2366 CH2          8.0585     9.2701    50.5534 CH2           1 RES     
    2367 CH2          8.4231     8.2502    49.4587 CH2           1 RES     
    2368 CH2          9.2534     8.9457    48.3641 CH2           1 RES     
    2369 CH2          9.6180     7.9257    47.2694 CH2           1 RES     
    2370 CH2         10.4484     8.6212    46.1747 CH2           1 RES     
    2371 CH2         10.8129     7.6013    45.0800 CH2           1 RES     
    2372 CH2         11.6433     8.2968    43.9853 CH2           1 RES     
    2373 CH2         12.0079     7.2768    42.8906 CH2           1 RES     
    2374 CH2         12.8382     7.9723    41.7959 CH2           1 RES     
    2375 CH2         13.2028     6.9524    40.7012 CH2           1 RES     
    2376 CH3         13.9954     7.6163    39.6563 CH3           1 RES     
    2377 CH3         17.4388    17.4388    67.0740 CH3           1 RES     
    2378 CH3         17.8236    15.1299    66.8419 CH3           1 RES     
    2379 CH3         15.8014    15.9194    67.1072 CH3           1 RES     
    2380 NL          17.0020    16.1602    66.6059 NL            1 RES     
    2381 CH2         16.7360    16.2629    65.2431 CH2           1 RES     
    2382 CH2         18.1474    16.5412    64.6934 CH2           1 RES     
    2383 OA          18.0843    16.6881    63.2170 OA            1 RES     
    2384 P           18.2963    15.2416    62.5668 P             1 RES     
    2385 OM          19.7506    14.7436    63.0107 OM            1 RES     
    2386 OM          17.0930    14.3218    63.0824 OM            1 RES     
    2387 OA          18.2348    15.3586    60.9722 OA            1 RES     
    2388 CH2         18.4349    14.0012    60.4044 CH2           1 RES     
    2389 CH1         19.0331    14.0368    59.1855 CH1           1 RES     
    2390 OE          20.3094    13.8095    58.4924 OE            1 RES     
    2391 C           20.7433    12.7577    59.4698 C             1 RES     
    2392 O           20.0789    12.3888    60.4370 O             1 RES     
    2393 CH2         21.9038    12.2347    58.8746 CH2           1 RES     
    2394 CH2         22.3278    12.8600    57.5327 CH2           1 RES     
    2395 CH2         23.4923    12.0500    56.9332 CH2           1 RES     
    2396 CH2         23.9162    12.6754    55.5913 CH2           1 RES     
    2397 CH2         25.0807    11.8654    54.9918 CH2           1 RES     
    2398 CH2         25.5047    12.4907    53.6498 CH2           1 RES     
    2399 CH2         26.6692    11.6807    53.0503 CH2           1 RES     
    2400 CH2         27.0932    12.3060    51.7084 CH2           1 RES     
    2401 CH2         28.2577    11.4960    51.1089 CH2           1 RES     
    2402 CH2         28.6816    12.1214    49.7670 CH2           1 RES     
    2403 CH2         29.8462    11.3114    49.1675 CH2           1 RES     
    2404 CH2         30.2701    11.9367    47.8255 CH2           1 RES     
    2405 CH2         31.4346    11.1267    47.2260 CH2           1 RES     
    2406 CH2         31.8586    11.7520    45.8841 CH2           1 RES     
    2407 CH2         33.0231    10.9420    45.2846 CH2           1 RES     
    2408 CH2         33.4470    11.5674    43.9426 CH2           1 RES     
    2409 CH3         34.5586    10.7942    43.3704 CH3           1 RES     
    2410 CH2         18.7803    15.5506    59.3123 CH2           1 RES     
    2411 OE          19.1044    16.0939    57.9916 OE            1 RES     
    2412 C           18.8138    17.5379    58.2753 C             1 RES     
    2413 O           18.4236    17.9702    59.3587 O             1 RES     
    2414 CH2         19.2860    18.1864    57.1216 CH2           1 RES     
    2415 CH2         19.8885    17.2863    56.0269 CH2           1 RES     
    2416 CH2         20.5239    18.1635    54.9322 CH2           1 RES     
    2417 CH2         21.1265    17.2634    53.8375 CH2           1 RES     
    2418 CH2         21.7619    18.1405    52.7428 CH2           1 RES     
    2419 CH2         22.3644    17.2404    51.6481 CH2           1 RES     
    2420 CH2         22.9999    18.1176    50.5534 CH2           1 RES     
    2421 CH2         23.6024    17.2175    49.4587 CH2           1 RES     
    2422 CH2         24.2379    18.0947    48.3641 CH2           1 RES     
    2423 CH2         24.8404    17.1945    47.2694 CH2           1 RES     
    2424 CH2         25.4759    18.0717    46.1747 CH2           1 RES     
    2425 CH2         26.0784    17.1716    45.0800 CH2           1 RES     
    2426 CH2         26.7138    18.0488    43.9853 CH2           1 RES     
    2427 CH2         27.3164    17.1487    42.8906 CH2           1 RES     
    2428 CH2         27.9518    18.0258    41.7959 CH2           1 RES     
    2429 CH2         28.5544    17.1257    40.7012 CH2           1 RES     
    2430 CH3         29.1609    17.9630    39.6563 CH3           1 RES     
    2431 CH3         24.9083    24.9083    67.0740 CH3           1 RES     
    2432 CH3         25.3747    22.6144    66.8419 CH3           1 RES     
    2433 CH3         23.3257    23.3317    67.1072 CH3           1 RES     
    2434 NL          24.5171    23.6149    66.6059 NL            1 RES     
    2435 CH2         24.2476    23.7081    65.2431 CH2           1 RES     
    2436 CH2         25.6482    24.0364    64.6934 CH2           1 RES     
    2437 OA          25.5799    24.1809    63.2170 OA            1 RES     
    2438 P           25.8432    22.7429    62.5668 P             1 RES     
    2439 OM          27.3142    22.2968    63.0107 OM            1 RES     
    2440 OM          24.6733    21.7809    63.0824 OM            1 RES     
    2441 OA          25.7775    22.8576    60.9722 OA            1 RES     
    2442 CH2         26.0257    21.5081    60.4044 CH2           1 RES     
    2443 CH1         26.6222    21.5650    59.1855 CH1           1 RES     
    2444 OE          27.9057    21.3831    58.4924 OE            1 RES     
    2445 C           28.3767    20.3473    59.4698 C             1 RES     
    2446 O           27.7258    19.9551    60.4370 O             1 RES     
    2447 CH2         29.5551    19.8658    58.8746 CH2           1 RES     
    2448 CH2         29.9566    20.5058    57.5327 CH2           1 RES     
    2449 CH2         31.1491    19.7376    56.9332 CH2           1 RES     
    2450 CH2         31.5506    20.3776    55.5913 CH2           1 RES     
    2451 CH2         32.7431    19.6094    54.9918 CH2           1 RES     
    2452 CH2         33.1446    20.2494    53.6498 CH2           1 RES     
    2453 CH2         34.3371    19.4812    53.0503 CH2           1 RES     
    2454 CH2         34.7386    20.1212    51.7084 CH2           1 RES     
    2455 CH2         35.9311    19.3531    51.1089 CH2           1 RES     
    2456 CH2         36.3326    19.9930    49.7670 CH2           1 RES     
    2457 CH2         37.5252    19.2249    49.1675 CH2           1 RES     
    2458 CH2         37.9267    19.8649    47.8255 CH2           1 RES     
    2459 CH2         39.1192    19.0967    47.2260 CH2           1 RES     
    2460 CH2         39.5207    19.7367    45.8841 CH2           1 RES     
    2461 CH2         40.7132    18.9685    45.2846 CH2           1 RES     
    2462 CH2         41.1147    19.6085    43.9426 CH2           1 RES     
    2463 CH3         42.2530    18.8752    43.3704 CH3           1 RES     
    2464 CH2         26.3158    23.0689    59.3123 CH2           1 RES     
    2465 OE          26.6205    23.6233    57.9916 OE            1 RES     
    2466 C           26.2788    25.0560    58.2753 C             1 RES     
    2467 O           25.8735    25.4742    59.3587 O             1 RES     
    2468 CH2         26.7277    25.7209    57.1216 CH2           1 RES     
    2469 CH2         27.3618    24.8427    56.0269 CH2           1 RES     
    2470 CH2         27.9657    25.7419    54.9322 CH2           1 RES     
    2471 CH2         28.5998    24.8637    53.8375 CH2           1 RES     
    2472 CH2         29.2037    25.7629    52.7428 CH2           1 RES     
    2473 CH2         29.8378    24.8847    51.6481 CH2           1 RES     
    2474 CH2         30.4417    25.7839    50.5534 CH2           1 RES     
    2475 CH2         31.0758    24.9057    49.4587 CH2           1 RES     
    2476 CH2         31.6798    25.8049    48.3641 CH2           1 RES     
    2477 CH2         32.3138    24.9267    47.2694 CH2           1 RES     
    2478 CH2         32.9178    25.8259    46.1747 CH2           1 RES     
    2479 CH2         33.5519    24.9477    45.0800 CH2           1 RES     
    2480 CH2         34.1558    25.8469    43.9853 CH2           1 RES     
    2481 CH2         34.7899    24.9687    42.8906 CH2           1 RES     
    2482 CH2         35.3938    25.8679    41.7959 CH2           1 RES     
    2483 CH2         36.0279    24.9897    40.7012 CH2           1 RES     
    2484 CH3         36.6044    25.8480    39.6563 CH3           1 RES     
    2485 CH3          2.5000     2.5000    67.0740 CH3           1 RES     
    2486 CH3          1.9432     0.2264    66.8419 CH3           1 RES     
    2487 CH3          0.3961     1.7493    67.1072 CH3           1 RES     
    2488 NL           1.5944     1.4972    66.6059 NL            1 RES     
    2489 CH2          1.3905     1.6964    65.2431 CH2           1 RES     
    2490 CH2          2.7972     1.3957    64.6934 CH2           1 RES     
    2491 OA           2.7971     1.5556    63.2170 OA            1 RES     
    2492 P            2.4217     0.1427    62.5668 P             1 RES     
    2493 OM           3.5618    -0.8884    63.0107 OM            1 RES     
    2494 OM           0.9532    -0.2282    63.0824 OM            1 RES     
    2495 OA           2.4112     0.2745    60.9722 OA            1 RES     
    2496 CH2          2.0599    -1.0519    60.4044 CH2           1 RES     
    2497 CH1          2.6237    -1.2550    59.1855 CH1           1 RES     
    2498 OE           3.7069    -1.9671    58.4924 OE            1 RES     
    2499 C            3.6910    -3.1048    59.4698 C             1 RES     
    2500 O            2.9350    -3.1818    60.4370 O             1 RES     
    2501 CH2          4.5513    -4.0430    58.8746 CH2           1 RES     
    2502 CH2          5.1874    -3.6355    57.5327 CH2           1 RES     
    2503 CH2          5.9382    -4.8391    56.9332 CH2           1 RES     
    2504 CH2          6.5744    -4.4315    55.5913 CH2           1 RES     
    2505 CH2          7.3252    -5.6351    54.9918 CH2           1 RES     
    2506 CH2          7.9614    -5.2276    53.6498 CH2           1 RES     
    2507 CH2          8.7122    -6.4311    53.0503 CH2           1 RES     
    2508 CH2          9.3483    -6.0236    51.7084 CH2           1 RES     
    2509 CH2         10.0991    -7.2271    51.1089 CH2           1 RES     
    2510 CH2         10.7353    -6.8196    49.7670 CH2           1 RES     
    2511 CH2         11.4861    -8.0232    49.1675 CH2           1 RES     
    2512 CH2         12.1223    -7.6157    47.8255 CH2           1 RES     
    2513 CH2         12.8731    -8.8192    47.2260 CH2           1 RES     
    2514 CH2         13.5092    -8.4117    45.8841 CH2           1 RES     
    2515 CH2         14.2600    -9.6152    45.2846 CH2           1 RES     
    2516 CH2         14.8962    -9.2077    43.9426 CH2           1 RES     
    2517 CH3         15.6129   -10.3565    43.3704 CH3           1 RES     
    2518 CH2          2.9882     0.2359    59.3123 CH2           1 RES     
    2519 OE           3.5003     0.6073    57.9916 OE            1 RES     
    2520 C            3.8026     2.0488    58.2753 C             1 RES     
    2521 O            3.6144     2.6000    59.3587 O             1 RES     
    2522 CH2          4.4922     2.4587    57.1216 CH2           1 RES     
    2523 CH2          4.6910     1.3939    56.0269 CH2           1 RES     
    2524 CH2          5.6209     1.9495    54.9322 CH2           1 RES     
    2525 CH2          5.8197     0.8847    53.8375 CH2           1 RES     
    2526 CH2          6.7495     1.4403    52.7428 CH2           1 RES     
    2527 CH2          6.9483     0.3755    51.6481 CH2           1 RES     
    2528 CH2          7.8781     0.9311    50.5534 CH2           1 RES     
    2529 CH2          8.0769    -0.1337    49.4587 CH2           1 RES     
    2530 CH2          9.0068     0.4219    48.3641 CH2           1 RES     
    2531 CH2          9.2056    -0.6429    47.2694 CH2           1 RES     
    2532 CH2         10.1354    -0.0873    46.1747 CH2           1 RES     
    2533 CH2         10.3342    -1.1521    45.0800 CH2           1 RES     
    2534 CH2         11.2641    -0.5965    43.9853 CH2           1 RES     
    2535 CH2         11.4629    -1.6613    42.8906 CH2           1 RES     
    2536 CH2         12.3927    -1.1057    41.7959 CH2           1 RES     
    2537 CH2         12.5915    -2.1705    40.7012 CH2           1 RES     
    2538 CH3         13.4791    -1.6402    39.6563 CH3           1 RES     
    2539 CH3         24.9083    47.3165    67.0740 CH3           1 RES     
    2540 CH3         24.9118    44.9758    66.8419 CH3           1 RES     
    2541 CH3         23.0452    46.0841    67.1072 CH3           1 RES     
    2542 NL          24.2690    46.1261    66.6059 NL            1 RES     
    2543 CH2         24.0233    46.2708    65.2431 CH2           1 RES     
    2544 CH2         25.4611    46.3155    64.6934 CH2           1 RES     
    2545 OA          25.4228    46.4707    63.2170 OA            1 RES     
    2546 P           25.3964    45.0090    62.5668 P             1 RES     
    2547 OM          26.7501    44.2808    63.0107 OM            1 RES     
    2548 OM          24.0593    44.2974    63.0824 OM            1 RES     
    2549 OA          25.3547    45.1345    60.9722 OA            1 RES     
    2550 CH2         25.3311    43.7625    60.4044 CH2           1 RES     
    2551 CH1         25.9271    43.7003    59.1855 CH1           1 RES     
    2552 OE          27.1493    43.2682    58.4924 OE            1 RES     
    2553 C           27.4061    42.1597    59.4698 C             1 RES     
    2554 O           26.6905    41.9039    60.4370 O             1 RES     
    2555 CH2         28.4659    41.4546    58.8746 CH2           1 RES     
    2556 CH2         28.9861    42.0026    57.5327 CH2           1 RES     
    2557 CH2         30.0031    41.0137    56.9332 CH2           1 RES     
    2558 CH2         30.5233    41.5616    55.5913 CH2           1 RES     
    2559 CH2         31.5403    40.5728    54.9918 CH2           1 RES     
    2560 CH2         32.0604    41.1207    53.6498 CH2           1 RES     
    2561 CH2         33.0775    40.1318    53.0503 CH2           1 RES     
    2562 CH2         33.5976    40.6797    51.7084 CH2           1 RES     
    2563 CH2         34.6146    39.6909    51.1089 CH2           1 RES     
    2564 CH2         35.1348    40.2388    49.7670 CH2           1 RES     
    2565 CH2         36.1518    39.2499    49.1675 CH2           1 RES     
    2566 CH2         36.6720    39.7979    47.8255 CH2           1 RES     
    2567 CH2         37.6890    38.8090    47.2260 CH2           1 RES     
    2568 CH2         38.2091    39.3569    45.8841 CH2           1 RES     
    2569 CH2         39.2262    38.3681    45.2846 CH2           1 RES     
    2570 CH2         39.7463    38.9160    43.9426 CH2           1 RES     
    2571 CH3         40.7171    37.9721    43.3704 CH3           1 RES     
    2572 CH2         25.9242    45.2351    59.3123 CH2           1 RES     
    2573 OE          26.3325    45.7182    57.9916 OE            1 RES     
    2574 C           26.2810    47.1903    58.2753 C             1 RES     
    2575 O           25.9664    47.6804    59.3587 O             1 RES     
    2576 CH2         26.8525    47.7533    57.1216 CH2           1 RES     
    2577 CH2         27.3003    46.7670    56.0269 CH2           1 RES     
    2578 CH2         28.0702    47.5290    54.9322 CH2           1 RES     
    2579 CH2         28.5181    46.5427    53.8375 CH2           1 RES     
    2580 CH2         29.2879    47.3047    52.7428 CH2           1 RES     
    2581 CH2         29.7358    46.3185    51.6481 CH2           1 RES     
    2582 CH2         30.5056    47.0804    50.5534 CH2           1 RES     
    2583 CH2         30.9535    46.0942    49.4587 CH2           1 RES     
    2584 CH2         31.7233    46.8561    48.3641 CH2           1 RES     
    2585 CH2         32.1712    45.8699    47.2694 CH2           1 RES     
    2586 CH2         32.9410    46.6319    46.1747 CH2           1 RES     
    2587 CH2         33.3889    45.6456    45.0800 CH2           1 RES     
    2588 CH2         34.1588    46.4076    43.9853 CH2           1 RES     
    2589 CH2         34.6066    45.4213    42.8906 CH2           1 RES     
    2590 CH2         35.3765    46.1833    41.7959 CH2           1 RES     
    2591 CH2         35.8243    45.1971    40.7012 CH2           1 RES     
    2592 CH3         36.5592    45.9244    39.6563 CH3           1 RES     
    2593 CH3          9.9694     2.5000    67.0740 CH3           1 RES     
    2594 CH3         10.7674     0.2994    66.8419 CH3           1 RES     
    2595 CH3          8.6354     0.7082    67.1072 CH3           1 RES     
    2596 NL           9.7723     1.1632    66.6059 NL            1 RES     
    2597 CH2          9.4920     1.2159    65.2431 CH2           1 RES     
    2598 CH2         10.8293     1.7461    64.6934 CH2           1 RES     
    2599 OA          10.7406     1.8790    63.2170 OA            1 RES     
    2600 P           11.2120     0.4952    62.5668 P             1 RES     
    2601 OM          12.7325     0.2698    63.0107 OM            1 RES     
    2602 OM          10.1959    -0.6280    63.0824 OM            1 RES     
    2603 OA          11.1302     0.5991    60.9722 OA            1 RES     
    2604 CH2         11.5737    -0.6994    60.4044 CH2           1 RES     
    2605 CH1         12.1555    -0.5556    59.1855 CH1           1 RES     
    2606 OE          13.4518    -0.5471    58.4924 OE            1 RES     
    2607 C           14.0696    -1.5026    59.4698 C             1 RES     
    2608 O           13.4833    -1.9861    60.4370 O             1 RES     
    2609 CH2         15.3059    -1.8060    58.8746 CH2           1 RES     
    2610 CH2         15.6091    -1.1140    57.5327 CH2           1 RES     
    2611 CH2         16.9015    -1.6988    56.9332 CH2           1 RES     
    2612 CH2         17.2047    -1.0069    55.5913 CH2           1 RES     
    2613 CH2         18.4970    -1.5917    54.9918 CH2           1 RES     
    2614 CH2         18.8003    -0.8997    53.6498 CH2           1 RES     
    2615 CH2         20.0926    -1.4846    53.0503 CH2           1 RES     
    2616 CH2         20.3958    -0.7926    51.7084 CH2           1 RES     
    2617 CH2         21.6882    -1.3775    51.1089 CH2           1 RES     
    2618 CH2         21.9914    -0.6855    49.7670 CH2           1 RES     
    2619 CH2         23.2838    -1.2704    49.1675 CH2           1 RES     
    2620 CH2         23.5870    -0.5784    47.8255 CH2           1 RES     
    2621 CH2         24.8793    -1.1632    47.2260 CH2           1 RES     
    2622 CH2         25.1826    -0.4713    45.8841 CH2           1 RES     
    2623 CH2         26.4749    -1.0561    45.2846 CH2           1 RES     
    2624 CH2         26.7781    -0.3641    43.9426 CH2           1 RES     
    2625 CH3         28.0117    -0.9224    43.3704 CH3           1 RES     
    2626 CH2         11.6317     0.8871    59.3123 CH2           1 RES     
    2627 OE          11.8517     1.4802    57.9916 OE            1 RES     
    2628 C           11.3035     2.8473    58.2753 C             1 RES     
    2629 O           10.8412     3.2014    59.3587 O             1 RES     
    2630 CH2         11.6499     3.5708    57.1216 CH2           1 RES     
    2631 CH2         12.4060     2.7952    56.0269 CH2           1 RES     
    2632 CH2         12.8714     3.7733    54.9322 CH2           1 RES     
    2633 CH2         13.6275     2.9977    53.8375 CH2           1 RES     
    2634 CH2         14.0930     3.9757    52.7428 CH2           1 RES     
    2635 CH2         14.8490     3.2001    51.6481 CH2           1 RES     
    2636 CH2         15.3145     4.1782    50.5534 CH2           1 RES     
    2637 CH2         16.0706     3.4026    49.4587 CH2           1 RES     
    2638 CH2         16.5360     4.3806    48.3641 CH2           1 RES     
    2639 CH2         17.2921     3.6050    47.2694 CH2           1 RES     
    2640 CH2         17.7575     4.5831    46.1747 CH2           1 RES     
    2641 CH2         18.5136     3.8075    45.0800 CH2           1 RES     
    2642 CH2         18.9791     4.7855    43.9853 CH2           1 RES     
    2643 CH2         19.7352     4.0099    42.8906 CH2           1 RES     
    2644 CH2         20.2006     4.9880    41.7959 CH2           1 RES     
    2645 CH2         20.9567     4.2124    40.7012 CH2           1 RES     
    2646 CH3         21.4010     5.1460    39.6563 CH3           1 RES     
    2647 CH3         24.9083    17.4388    67.0740 CH3           1 RES     
    2648 CH3         25.2764    15.1272    66.8419 CH3           1 RES     
    2649 CH3         23.2599    15.9312    67.1072 CH3           1 RES     
    2650 NL          24.4623    16.1634    66.6059 NL            1 RES     
    2651 CH2         24.1970    16.2680    65.2431 CH2           1 RES     
    2652 CH2         25.6104    16.5362    64.6934 CH2           1 RES     
    2653 OA          25.5483    16.6835    63.2170 OA            1 RES     
    2654 P           25.7500    15.2355    62.5668 P             1 RES     
    2655 OM          27.2006    14.7271    63.0107 OM            1 RES     
    2656 OM          24.5401    14.3243    63.0824 OM            1 RES     
    2657 OA          25.6893    15.3530    60.9722 OA            1 RES     
    2658 CH2         25.8797    13.9941    60.4044 CH2           1 RES     
    2659 CH1         26.4781    14.0255    59.1855 CH1           1 RES     
    2660 OE          27.7527    13.7890    58.4924 OE            1 RES     
    2661 C           28.1790    12.7341    59.4698 C             1 RES     
    2662 O           27.5120    12.3700    60.4370 O             1 RES     
    2663 CH2         29.3358    12.2028    58.8746 CH2           1 RES     
    2664 CH2         29.7642    12.8251    57.5327 CH2           1 RES     
    2665 CH2         30.9229    12.0067    56.9332 CH2           1 RES     
    2666 CH2         31.3513    12.6290    55.5913 CH2           1 RES     
    2667 CH2         32.5100    11.8107    54.9918 CH2           1 RES     
    2668 CH2         32.9384    12.4330    53.6498 CH2           1 RES     
    2669 CH2         34.0971    11.6146    53.0503 CH2           1 RES     
    2670 CH2         34.5255    12.2369    51.7084 CH2           1 RES     
    2671 CH2         35.6842    11.4186    51.1089 CH2           1 RES     
    2672 CH2         36.1126    12.0409    49.7670 CH2           1 RES     
    2673 CH2         37.2713    11.2225    49.1675 CH2           1 RES     
    2674 CH2         37.6997    11.8448    47.8255 CH2           1 RES     
    2675 CH2         38.8584    11.0265    47.2260 CH2           1 RES     
    2676 CH2         39.2868    11.6488    45.8841 CH2           1 RES     
    2677 CH2         40.4455    10.8304    45.2846 CH2           1 RES     
    2678 CH2         40.8739    11.4527    43.9426 CH2           1 RES     
    2679 CH3         41.9799    10.6716    43.3704 CH3           1 RES     
    2680 CH2         26.2361    15.5411    59.3123 CH2           1 RES     
    2681 OE          26.5642    16.0820    57.9916 OE            1 RES     
    2682 C           26.2839    17.5280    58.2753 C             1 RES     
    2683 O           25.8968    17.9631    59.3587 O             1 RES     
    2684 CH2         26.7607    18.1731    57.1216 CH2           1 RES     
    2685 CH2         27.3567    17.2687    56.0269 CH2           1 RES     
    2686 CH2         27.9985    18.1413    54.9322 CH2           1 RES     
    2687 CH2         28.5945    17.2369    53.8375 CH2           1 RES     
    2688 CH2         29.2363    18.1095    52.7428 CH2           1 RES     
    2689 CH2         29.8323    17.2051    51.6481 CH2           1 RES     
    2690 CH2         30.4740    18.0777    50.5534 CH2           1 RES     
    2691 CH2         31.0701    17.1733    49.4587 CH2           1 RES     
    2692 CH2         31.7118    18.0459    48.3641 CH2           1 RES     
    2693 CH2         32.3079    17.1415    47.2694 CH2           1 RES     
    2694 CH2         32.9496    18.0141    46.1747 CH2           1 RES     
    2695 CH2         33.5457    17.1096    45.0800 CH2           1 RES     
    2696 CH2         34.1874    17.9822    43.9853 CH2           1 RES     
    2697 CH2         34.7835    17.0778    42.8906 CH2           1 RES     
    2698 CH2         35.4252    17.9504    41.7959 CH2           1 RES     
    2699 CH2         36.0212    17.0460    40.7012 CH2           1 RES     
    2700 CH3         36.6338    17.8789    39.6563 CH3           1 RES     
    2701 CH3         17.4388     9.9694    67.0740 CH3           1 RES     
    2702 CH3         18.6436     7.9625    66.8419 CH3           1 RES     
    2703 CH3         16.4728     7.9553    67.1072 CH3           1 RES     
    2704 NL          17.5014     8.6197    66.6059 NL            1 RES     
    2705 CH2         17.2163     8.6177    65.2431 CH2           1 RES     
    2706 CH2         18.4272     9.3942    64.6934 CH2           1 RES     
    2707 OA          18.3147     9.5077    63.2170 OA            1 RES     
    2708 P           19.0425     8.2398    62.5668 P             1 RES     
    2709 OM          20.5780     8.3099    63.0107 OM            1 RES     
    2710 OM          18.2604     6.9427    63.0824 OM            1 RES     
    2711 OA          18.9423     8.3261    60.9722 OA            1 RES     
    2712 CH2         19.6264     7.1366    60.4044 CH2           1 RES     
    2713 CH1         20.1698     7.3892    59.1855 CH1           1 RES     
    2714 OE          21.4404     7.6459    58.4924 OE            1 RES     
    2715 C           22.2299     6.8264    59.4698 C             1 RES     
    2716 O           21.7471     6.2396    60.4370 O             1 RES     
    2717 CH2         23.5014     6.7656    58.8746 CH2           1 RES     
    2718 CH2         23.6664     7.5028    57.5327 CH2           1 RES     
    2719 CH2         25.0469     7.1764    56.9332 CH2           1 RES     
    2720 CH2         25.2119     7.9136    55.5913 CH2           1 RES     
    2721 CH2         26.5924     7.5872    54.9918 CH2           1 RES     
    2722 CH2         26.7574     8.3244    53.6498 CH2           1 RES     
    2723 CH2         28.1379     7.9980    53.0503 CH2           1 RES     
    2724 CH2         28.3029     8.7353    51.7084 CH2           1 RES     
    2725 CH2         29.6834     8.4088    51.1089 CH2           1 RES     
    2726 CH2         29.8484     9.1461    49.7670 CH2           1 RES     
    2727 CH2         31.2289     8.8196    49.1675 CH2           1 RES     
    2728 CH2         31.3939     9.5569    47.8255 CH2           1 RES     
    2729 CH2         32.7744     9.2304    47.2260 CH2           1 RES     
    2730 CH2         32.9394     9.9677    45.8841 CH2           1 RES     
    2731 CH2         34.3199     9.6412    45.2846 CH2           1 RES     
    2732 CH2         34.4849    10.3785    43.9426 CH2           1 RES     
    2733 CH3         35.8026    10.0669    43.3704 CH3           1 RES     
    2734 CH2         19.3793     8.7048    59.3123 CH2           1 RES     
    2735 OE          19.4817     9.3291    57.9916 OE            1 RES     
    2736 C           18.6817    10.5658    58.2753 C             1 RES     
    2737 O           18.1601    10.8249    59.3587 O             1 RES     
    2738 CH2         18.8830    11.3424    57.1216 CH2           1 RES     
    2739 CH2         19.7737    10.7260    56.0269 CH2           1 RES     
    2740 CH2         20.0432    11.7751    54.9322 CH2           1 RES     
    2741 CH2         20.9338    11.1587    53.8375 CH2           1 RES     
    2742 CH2         21.2033    12.2078    52.7428 CH2           1 RES     
    2743 CH2         22.0940    11.5914    51.6481 CH2           1 RES     
    2744 CH2         22.3634    12.6405    50.5534 CH2           1 RES     
    2745 CH2         23.2541    12.0241    49.4587 CH2           1 RES     
    2746 CH2         23.5235    13.0732    48.3641 CH2           1 RES     
    2747 CH2         24.4142    12.4568    47.2694 CH2           1 RES     
    2748 CH2         24.6836    13.5059    46.1747 CH2           1 RES     
    2749 CH2         25.5743    12.8895    45.0800 CH2           1 RES     
    2750 CH2         25.8438    13.9387    43.9853 CH2           1 RES     
    2751 CH2         26.7344    13.3223    42.8906 CH2           1 RES     
    2752 CH2         27.0039    14.3714    41.7959 CH2           1 RES     
    2753 CH2         27.8946    13.7550    40.7012 CH2           1 RES     
    2754 CH3         28.1518    14.7564    39.6563 CH3           1 RES     
    2755 CH3         32.3777    17.4388    67.0740 CH3           1 RES     
    2756 CH3         33.1340    15.2236    66.8419 CH3           1 RES     
    2757 CH3         31.0101    15.6726    67.1072 CH3           1 RES     
    2758 NL          32.1553    16.1061    66.6059 NL            1 RES     
    2759 CH2         31.8761    16.1640    65.2431 CH2           1 RES     
    2760 CH2         33.2232    16.6689    64.6934 CH2           1 RES     
    2761 OA          33.1370    16.8034    63.2170 OA            1 RES     
    2762 P           33.5822    15.4110    62.5668 P             1 RES     
    2763 OM          35.0982    15.1569    63.0107 OM            1 RES     
    2764 OM          32.5450    14.3071    63.0824 OM            1 RES     
    2765 OA          33.5023    15.5164    60.9722 OA            1 RES     
    2766 CH2         33.9213    14.2097    60.4044 CH2           1 RES     
    2767 CH1         34.5056    14.3425    59.1855 CH1           1 RES     
    2768 OE          35.8018    14.3265    58.4924 OE            1 RES     
    2769 C           36.4015    13.3595    59.4698 C             1 RES     
    2770 O           35.8062    12.8872    60.4370 O             1 RES     
    2771 CH2         37.6319    13.0328    58.8746 CH2           1 RES     
    2772 CH2         37.9481    13.7190    57.5327 CH2           1 RES     
    2773 CH2         39.2292    13.1098    56.9332 CH2           1 RES     
    2774 CH2         39.5454    13.7959    55.5913 CH2           1 RES     
    2775 CH2         40.8265    13.1868    54.9918 CH2           1 RES     
    2776 CH2         41.1427    13.8729    53.6498 CH2           1 RES     
    2777 CH2         42.4238    13.2637    53.0503 CH2           1 RES     
    2778 CH2         42.7401    13.9498    51.7084 CH2           1 RES     
    2779 CH2         44.0211    13.3407    51.1089 CH2           1 RES     
    2780 CH2         44.3374    14.0268    49.7670 CH2           1 RES     
    2781 CH2         45.6184    13.4176    49.1675 CH2           1 RES     
    2782 CH2         45.9347    14.1037    47.8255 CH2           1 RES     
    2783 CH2         47.2157    13.4946    47.2260 CH2           1 RES     
    2784 CH2         47.5320    14.1807    45.8841 CH2           1 RES     
    2785 CH2         48.8131    13.5715    45.2846 CH2           1 RES     
    2786 CH2         49.1293    14.2577    43.9426 CH2           1 RES     
    2787 CH3         50.3521    13.6762    43.3704 CH3           1 RES     
    2788 CH2         34.0092    15.7948    59.3123 CH2           1 RES     
    2789 OE          34.2404    16.3836    57.9916 OE            1 RES     
    2790 C           33.7181    17.7608    58.2753 C             1 RES     
    2791 O           33.2625    18.1237    59.3587 O             1 RES     
    2792 CH2         34.0781    18.4777    57.1216 CH2           1 RES     
    2793 CH2         34.8194    17.6880    56.0269 CH2           1 RES     
    2794 CH2         35.3032    18.6571    54.9322 CH2           1 RES     
    2795 CH2         36.0445    17.8673    53.8375 CH2           1 RES     
    2796 CH2         36.5284    18.8364    52.7428 CH2           1 RES     
    2797 CH2         37.2697    18.0466    51.6481 CH2           1 RES     
    2798 CH2         37.7535    19.0157    50.5534 CH2           1 RES     
    2799 CH2         38.4948    18.2260    49.4587 CH2           1 RES     
    2800 CH2         38.9786    19.1951    48.3641 CH2           1 RES     
    2801 CH2         39.7199    18.4053    47.2694 CH2           1 RES     
    2802 CH2         40.2038    19.3744    46.1747 CH2           1 RES     
    2803 CH2         40.9451    18.5847    45.0800 CH2           1 RES     
    2804 CH2         41.4289    19.5538    43.9853 CH2           1 RES     
    2805 CH2         42.1702    18.7640    42.8906 CH2           1 RES     
    2806 CH2         42.6541    19.7331    41.7959 CH2           1 RES     
    2807 CH2         43.3954    18.9433    40.7012 CH2           1 RES     
    2808 CH3         43.8572    19.8684    39.6563 CH3           1 RES     
    2809 CH3         24.9083    39.8471    67.0740 CH3           1 RES     
    2810 CH3         24.9687    37.5071    66.8419 CH3           1 RES     
    2811 CH3         23.0757    38.5697    67.1072 CH3           1 RES     
    2812 NL          24.2981    38.6415    66.6059 NL            1 RES     
    2813 CH2         24.0490    38.7802    65.2431 CH2           1 RES     
    2814 CH2         25.4853    38.8598    64.6934 CH2           1 RES     
    2815 OA          25.4432    39.0140    63.2170 OA            1 RES     
    2816 P           25.4524    37.5521    62.5668 P             1 RES     
    2817 OM          26.8234    36.8570    63.0107 OM            1 RES     
    2818 OM          24.1330    36.8083    63.0824 OM            1 RES     
    2819 OA          25.4077    37.6766    60.9722 OA            1 RES     
    2820 CH2         25.4174    36.3044    60.4044 CH2           1 RES     
    2821 CH1         26.0148    36.2567    59.1855 CH1           1 RES     
    2822 OE          27.2471    35.8544    58.4924 OE            1 RES     
    2823 C           27.5308    34.7525    59.4698 C             1 RES     
    2824 O           26.8216    34.4795    60.4370 O             1 RES     
    2825 CH2         28.6075    34.0735    58.8746 CH2           1 RES     
    2826 CH2         29.1141    34.6339    57.5327 CH2           1 RES     
    2827 CH2         30.1549    33.6701    56.9332 CH2           1 RES     
    2828 CH2         30.6616    34.2305    55.5913 CH2           1 RES     
    2829 CH2         31.7023    33.2666    54.9918 CH2           1 RES     
    2830 CH2         32.2090    33.8271    53.6498 CH2           1 RES     
    2831 CH2         33.2498    32.8632    53.0503 CH2           1 RES     
    2832 CH2         33.7565    33.4236    51.7084 CH2           1 RES     
    2833 CH2         34.7972    32.4598    51.1089 CH2           1 RES     
    2834 CH2         35.3039    33.0202    49.7670 CH2           1 RES     
    2835 CH2         36.3447    32.0564    49.1675 CH2           1 RES     
    2836 CH2         36.8514    32.6168    47.8255 CH2           1 RES     
    2837 CH2         37.8921    31.6530    47.2260 CH2           1 RES     
    2838 CH2         38.3988    32.2134    45.8841 CH2           1 RES     
    2839 CH2         39.4396    31.2496    45.2846 CH2           1 RES     
    2840 CH2         39.9463    31.8100    43.9426 CH2           1 RES     
    2841 CH3         40.9397    30.8900    43.3704 CH3           1 RES     
    2842 CH2         25.9745    37.7910    59.3123 CH2           1 RES     
    2843 OE          26.3710    38.2839    57.9916 OE            1 RES     
    2844 C           26.2837    39.7543    58.2753 C             1 RES     
    2845 O           25.9572    40.2366    59.3587 O             1 RES     
    2846 CH2         26.8413    40.3310    57.1216 CH2           1 RES     
    2847 CH2         27.3130    39.3559    56.0269 CH2           1 RES     
    2848 CH2         28.0641    40.1364    54.9322 CH2           1 RES     
    2849 CH2         28.5358    39.1614    53.8375 CH2           1 RES     
    2850 CH2         29.2869    39.9418    52.7428 CH2           1 RES     
    2851 CH2         29.7586    38.9668    51.6481 CH2           1 RES     
    2852 CH2         30.5097    39.7472    50.5534 CH2           1 RES     
    2853 CH2         30.9814    38.7722    49.4587 CH2           1 RES     
    2854 CH2         31.7325    39.5526    48.3641 CH2           1 RES     
    2855 CH2         32.2042    38.5776    47.2694 CH2           1 RES     
    2856 CH2         32.9553    39.3580    46.1747 CH2           1 RES     
    2857 CH2         33.4270    38.3830    45.0800 CH2           1 RES     
    2858 CH2         34.1781    39.1634    43.9853 CH2           1 RES     
    2859 CH2         34.6498    38.1884    42.8906 CH2           1 RES     
    2860 CH2         35.4009    38.9688    41.7959 CH2           1 RES     
    2861 CH2         35.8727    37.9938    40.7012 CH2           1 RES     
    2862 CH3         36.5896    38.7388    39.6563 CH3           1 RES     
    2863 CH3         47.3165     9.9694    67.0740 CH3           1 RES     
    2864 CH3         47.5233     7.6378    66.8419 CH3           1 RES     
    2865 CH3         45.5675     8.5799    67.1072 CH3           1 RES     
    2866 NL          46.7831     8.7280    66.6059 NL            1 RES     
    2867 CH2         46.5257     8.8508    65.2431 CH2           1 RES     
    2868 CH2         47.9543     9.0202    64.6934 CH2           1 RES     
    2869 OA          47.9026     9.1714    63.2170 OA            1 RES     
    2870 P           48.0032     7.7130    62.5668 P             1 RES     
    2871 OM          49.4151     7.1051    63.0107 OM            1 RES     
    2872 OM          46.7330     6.8880    63.0824 OM            1 RES     
    2873 OA          47.9508     7.8344    60.9722 OA            1 RES     
    2874 CH2         48.0464     6.4655    60.4044 CH2           1 RES     
    2875 CH1         48.6456     6.4553    59.1855 CH1           1 RES     
    2876 OE          49.9007     6.1309    58.4924 OE            1 RES     
    2877 C           50.2527     5.0489    59.4698 C             1 RES     
    2878 O           49.5620     4.7320    60.4370 O             1 RES     
    2879 CH2         51.3698     4.4386    58.8746 CH2           1 RES     
    2880 CH2         51.8404     5.0296    57.5327 CH2           1 RES     
    2881 CH2         52.9395     4.1328    56.9332 CH2           1 RES     
    2882 CH2         53.4101     4.7238    55.5913 CH2           1 RES     
    2883 CH2         54.5091     3.8270    54.9918 CH2           1 RES     
    2884 CH2         54.9797     4.4181    53.6498 CH2           1 RES     
    2885 CH2         56.0788     3.5212    53.0503 CH2           1 RES     
    2886 CH2         56.5494     4.1123    51.7084 CH2           1 RES     
    2887 CH2         57.6484     3.2155    51.1089 CH2           1 RES     
    2888 CH2         58.1190     3.8065    49.7670 CH2           1 RES     
    2889 CH2         59.2181     2.9097    49.1675 CH2           1 RES     
    2890 CH2         59.6887     3.5007    47.8255 CH2           1 RES     
    2891 CH2         60.7878     2.6039    47.2260 CH2           1 RES     
    2892 CH2         61.2584     3.1949    45.8841 CH2           1 RES     
    2893 CH2         62.3574     2.2981    45.2846 CH2           1 RES     
    2894 CH2         62.8280     2.8891    43.9426 CH2           1 RES     
    2895 CH3         63.8771     2.0331    43.3704 CH3           1 RES     
    2896 CH2         48.5094     7.9840    59.3123 CH2           1 RES     
    2897 OE          48.8742     8.5008    57.9916 OE            1 RES     
    2898 C           48.6950     9.9628    58.2753 C             1 RES     
    2899 O           48.3391    10.4238    59.3587 O             1 RES     
    2900 CH2         49.2155    10.5733    57.1216 CH2           1 RES     
    2901 CH2         49.7473     9.6297    56.0269 CH2           1 RES     
    2902 CH2         50.4481    10.4556    54.9322 CH2           1 RES     
    2903 CH2         50.9799     9.5120    53.8375 CH2           1 RES     
    2904 CH2         51.6807    10.3379    52.7428 CH2           1 RES     
    2905 CH2         52.2125     9.3943    51.6481 CH2           1 RES     
    2906 CH2         52.9132    10.2203    50.5534 CH2           1 RES     
    2907 CH2         53.4451     9.2766    49.4587 CH2           1 RES     
    2908 CH2         54.1458    10.1026    48.3641 CH2           1 RES     
    2909 CH2         54.6777     9.1589    47.2694 CH2           1 RES     
    2910 CH2         55.3784     9.9849    46.1747 CH2           1 RES     
    2911 CH2         55.9102     9.0413    45.0800 CH2           1 RES     
    2912 CH2         56.6110     9.8672    43.9853 CH2           1 RES     
    2913 CH2         57.1428     8.9236    42.8906 CH2           1 RES     
    2914 CH2         57.8436     9.7495    41.7959 CH2           1 RES     
    2915 CH2         58.3754     8.8059    40.7012 CH2           1 RES     
    2916 CH3         59.0443     9.5943    39.6563 CH3           1 RES     
    2917 CH3         24.9083     2.5000    67.0740 CH3           1 RES     
    2918 CH3         24.7964     0.1619    66.8419 CH3           1 RES     
    2919 CH3         22.9867     1.3609    67.1072 CH3           1 RES     
    2920 NL          24.2111     1.3425    66.6059 NL            1 RES     
    2921 CH2         23.9728     1.4991    65.2431 CH2           1 RES     
    2922 CH2         25.4112     1.4729    64.6934 CH2           1 RES     
    2923 OA          25.3805     1.6298    63.2170 OA            1 RES     
    2924 P           25.2821     0.1712    62.5668 P             1 RES     
    2925 OM          26.5983    -0.6229    63.0107 OM            1 RES     
    2926 OM          23.9116    -0.4736    63.0824 OM            1 RES     
    2927 OA          25.2467     0.2986    60.9722 OA            1 RES     
    2928 CH2         25.1555    -1.0706    60.4044 CH2           1 RES     
    2929 CH1         25.7477    -1.1621    59.1855 CH1           1 RES     
    2930 OE          26.9471    -1.6539    58.4924 OE            1 RES     
    2931 C           27.1489    -2.7737    59.4698 C             1 RES     
    2932 O           26.4216    -2.9938    60.4370 O             1 RES     
    2933 CH2         28.1727    -3.5301    58.8746 CH2           1 RES     
    2934 CH2         28.7193    -3.0085    57.5327 CH2           1 RES     
    2935 CH2         29.6863    -4.0463    56.9332 CH2           1 RES     
    2936 CH2         30.2328    -3.5246    55.5913 CH2           1 RES     
    2937 CH2         31.1999    -4.5624    54.9918 CH2           1 RES     
    2938 CH2         31.7464    -4.0408    53.6498 CH2           1 RES     
    2939 CH2         32.7135    -5.0786    53.0503 CH2           1 RES     
    2940 CH2         33.2600    -4.5569    51.7084 CH2           1 RES     
    2941 CH2         34.2271    -5.5947    51.1089 CH2           1 RES     
    2942 CH2         34.7736    -5.0731    49.7670 CH2           1 RES     
    2943 CH2         35.7407    -6.1108    49.1675 CH2           1 RES     
    2944 CH2         36.2872    -5.5892    47.8255 CH2           1 RES     
    2945 CH2         37.2542    -6.6270    47.2260 CH2           1 RES     
    2946 CH2         37.8008    -6.1054    45.8841 CH2           1 RES     
    2947 CH2         38.7678    -7.1431    45.2846 CH2           1 RES     
    2948 CH2         39.3143    -6.6215    43.9426 CH2           1 RES     
    2949 CH3         40.2374    -7.6121    43.3704 CH3           1 RES     
    2950 CH2         25.8204     0.3710    59.3123 CH2           1 RES     
    2951 OE          26.2521     0.8335    57.9916 OE            1 RES     
    2952 C           26.2731     2.3062    58.2753 C             1 RES     
    2953 O           25.9830     2.8112    59.3587 O             1 RES     
    2954 CH2         26.8716     2.8404    57.1216 CH2           1 RES     
    2955 CH2         27.2704     1.8333    56.0269 CH2           1 RES     
    2956 CH2         28.0768     2.5564    54.9322 CH2           1 RES     
    2957 CH2         28.4755     1.5493    53.8375 CH2           1 RES     
    2958 CH2         29.2820     2.2724    52.7428 CH2           1 RES     
    2959 CH2         29.6807     1.2652    51.6481 CH2           1 RES     
    2960 CH2         30.4872     1.9883    50.5534 CH2           1 RES     
    2961 CH2         30.8859     0.9812    49.4587 CH2           1 RES     
    2962 CH2         31.6924     1.7043    48.3641 CH2           1 RES     
    2963 CH2         32.0911     0.6972    47.2694 CH2           1 RES     
    2964 CH2         32.8975     1.4203    46.1747 CH2           1 RES     
    2965 CH2         33.2963     0.4132    45.0800 CH2           1 RES     
    2966 CH2         34.1027     1.1363    43.9853 CH2           1 RES     
    2967 CH2         34.5014     0.1292    42.8906 CH2           1 RES     
    2968 CH2         35.3079     0.8523    41.7959 CH2           1 RES     
    2969 CH2         35.7066    -0.1548    40.7012 CH2           1 RES     
    2970 CH3         36.4764     0.5354    39.6563 CH3           1 RES     
    2971 CH3         39.8471    39.8471    67.0740 CH3           1 RES     
    2972 CH3         39.9398    37.5082    66.8419 CH3           1 RES     
    2973 CH3         38.0323    38.5446    67.1072 CH3           1 RES     
    2974 NL          39.2537    38.6332    66.6059 NL            1 RES     
    2975 CH2         39.0026    38.7684    65.2431 CH2           1 RES     
    2976 CH2         40.4377    38.8679    64.6934 CH2           1 RES     
    2977 OA          40.3935    39.0215    63.2170 OA            1 RES     
    2978 P           40.4228    37.5599    62.5668 P             1 RES     
    2979 OM          41.8033    36.8837    63.0107 OM            1 RES     
    2980 OM          39.1138    36.7979    63.0824 OM            1 RES     
    2981 OA          40.3764    37.6836    60.9722 OA            1 RES     
    2982 CH2         40.4051    36.3118    60.4044 CH2           1 RES     
    2983 CH1         41.0030    36.2723    59.1855 CH1           1 RES     
    2984 OE          42.2408    35.8871    58.4924 OE            1 RES     
    2985 C           42.5396    34.7891    59.4698 C             1 RES     
    2986 O           41.8343    34.5064    60.4370 O             1 RES     
    2987 CH2         43.6255    34.1250    58.8746 CH2           1 RES     
    2988 CH2         44.1244    34.6924    57.5327 CH2           1 RES     
    2989 CH2         45.1784    33.7430    56.9332 CH2           1 RES     
    2990 CH2         45.6773    34.3103    55.5913 CH2           1 RES     
    2991 CH2         46.7313    33.3609    54.9918 CH2           1 RES     
    2992 CH2         47.2302    33.9283    53.6498 CH2           1 RES     
    2993 CH2         48.2841    32.9789    53.0503 CH2           1 RES     
    2994 CH2         48.7830    33.5462    51.7084 CH2           1 RES     
    2995 CH2         49.8370    32.5968    51.1089 CH2           1 RES     
    2996 CH2         50.3359    33.1642    49.7670 CH2           1 RES     
    2997 CH2         51.3899    32.2148    49.1675 CH2           1 RES     
    2998 CH2         51.8887    32.7821    47.8255 CH2           1 RES     
    2999 CH2         52.9427    31.8327    47.2260 CH2           1 RES     
    3000 CH2         53.4416    32.4001    45.8841 CH2           1 RES     
    3001 CH2         54.4956    31.4507    45.2846 CH2           1 RES     
    3002 CH2         54.9945    32.0181    43.9426 CH2           1 RES     
    3003 CH3         56.0005    31.1118    43.3704 CH3           1 RES     
    3004 CH2         40.9416    37.8059    59.3123 CH2           1 RES     
    3005 OE          41.3313    38.3043    57.9916 OE            1 RES     
    3006 C           41.2237    39.7732    58.2753 C             1 RES     
    3007 O           40.8906    40.2510    59.3587 O             1 RES     
    3008 CH2         41.7733    40.3576    57.1216 CH2           1 RES     
    3009 CH2         42.2584    39.3891    56.0269 CH2           1 RES     
    3010 CH2         42.9986    40.1799    54.9322 CH2           1 RES     
    3011 CH2         43.4838    39.2114    53.8375 CH2           1 RES     
    3012 CH2         44.2240    40.0022    52.7428 CH2           1 RES     
    3013 CH2         44.7091    39.0337    51.6481 CH2           1 RES     
    3014 CH2         45.4494    39.8244    50.5534 CH2           1 RES     
    3015 CH2         45.9345    38.8560    49.4587 CH2           1 RES     
    3016 CH2         46.6748    39.6467    48.3641 CH2           1 RES     
    3017 CH2         47.1599    38.6783    47.2694 CH2           1 RES     
    3018 CH2         47.9001    39.4690    46.1747 CH2           1 RES     
    3019 CH2         48.3853    38.5006    45.0800 CH2           1 RES     
    3020 CH2         49.1255    39.2913    43.9853 CH2           1 RES     
    3021 CH2         49.6106    38.3228    42.8906 CH2           1 RES     
    3022 CH2         50.3509    39.1136    41.7959 CH2           1 RES     
    3023 CH2         50.8360    38.1451    40.7012 CH2           1 RES     
    3024 CH3         51.5426    38.8999    39.6563 CH3           1 RES     
    3025 CH3         39.8471    54.7860    67.0740 CH3           1 RES     
    3026 CH3         40.2557    52.4811    66.8419 CH3           1 RES     
    3027 CH3         38.2254    53.2497    67.1072 CH3           1 RES     
    3028 NL          39.4235    53.5029    66.6059 NL            1 RES     
    3029 CH2         39.1565    53.6028    65.2431 CH2           1 RES     
    3030 CH2         40.5649    53.8957    64.6934 CH2           1 RES     
    3031 OA          40.5003    54.0419    63.2170 OA            1 RES     
    3032 P           40.7272    52.5977    62.5668 P             1 RES     
    3033 OM          42.1866    52.1147    63.0107 OM            1 RES     
    3034 OM          39.5335    51.6655    63.0824 OM            1 RES     
    3035 OA          40.6645    52.7141    60.9722 OA            1 RES     
    3036 CH2         40.8786    51.3587    60.4044 CH2           1 RES     
    3037 CH1         41.4764    51.4006    59.1855 CH1           1 RES     
    3038 OE          42.7549    51.1865    58.4924 OE            1 RES     
    3039 C           43.1996    50.1391    59.4698 C             1 RES     
    3040 O           42.5391    49.7635    60.4370 O             1 RES     
    3041 CH2         44.3655    49.6282    58.8746 CH2           1 RES     
    3042 CH2         44.7830    50.2578    57.5327 CH2           1 RES     
    3043 CH2         45.9558    49.4599    56.9332 CH2           1 RES     
    3044 CH2         46.3733    50.0896    55.5913 CH2           1 RES     
    3045 CH2         47.5461    49.2916    54.9918 CH2           1 RES     
    3046 CH2         47.9636    49.9213    53.6498 CH2           1 RES     
    3047 CH2         49.1364    49.1233    53.0503 CH2           1 RES     
    3048 CH2         49.5539    49.7530    51.7084 CH2           1 RES     
    3049 CH2         50.7267    48.9551    51.1089 CH2           1 RES     
    3050 CH2         51.1442    49.5848    49.7670 CH2           1 RES     
    3051 CH2         52.3170    48.7868    49.1675 CH2           1 RES     
    3052 CH2         52.7345    49.4165    47.8255 CH2           1 RES     
    3053 CH2         53.9073    48.6185    47.2260 CH2           1 RES     
    3054 CH2         54.3247    49.2482    45.8841 CH2           1 RES     
    3055 CH2         55.4975    48.4503    45.2846 CH2           1 RES     
    3056 CH2         55.9150    49.0799    43.9426 CH2           1 RES     
    3057 CH3         57.0345    48.3183    43.3704 CH3           1 RES     
    3058 CH2         41.2079    52.9117    59.3123 CH2           1 RES     
    3059 OE          41.5265    53.4583    57.9916 OE            1 RES     
    3060 C           41.2210    54.8992    58.2753 C             1 RES     
    3061 O           40.8263    55.3274    59.3587 O             1 RES     
    3062 CH2         41.6864    55.5525    57.1216 CH2           1 RES     
    3063 CH2         42.2982    54.6587    56.0269 CH2           1 RES     
    3064 CH2         42.9246    55.5424    54.9322 CH2           1 RES     
    3065 CH2         43.5363    54.6485    53.8375 CH2           1 RES     
    3066 CH2         44.1627    55.5322    52.7428 CH2           1 RES     
    3067 CH2         44.7745    54.6384    51.6481 CH2           1 RES     
    3068 CH2         45.4009    55.5220    50.5534 CH2           1 RES     
    3069 CH2         46.0127    54.6282    49.4587 CH2           1 RES     
    3070 CH2         46.6390    55.5119    48.3641 CH2           1 RES     
    3071 CH2         47.2508    54.6180    47.2694 CH2           1 RES     
    3072 CH2         47.8772    55.5017    46.1747 CH2           1 RES     
    3073 CH2         48.4890    54.6079    45.0800 CH2           1 RES     
    3074 CH2         49.1153    55.4915    43.9853 CH2           1 RES     
    3075 CH2         49.7271    54.5977    42.8906 CH2           1 RES     
    3076 CH2         50.3535    55.4814    41.7959 CH2           1 RES     
    3077 CH2         50.9653    54.5875    40.7012 CH2           1 RES     
    3078 CH3         51.5632    55.4310    39.6563 CH3           1 RES     
    3079 CH3         54.7860     9.9694    67.0740 CH3           1 RES     
    3080 CH3         56.0297     7.9864    66.8419 CH3           1 RES     
    3081 CH3         53.8594     7.9368    67.1072 CH3           1 RES     
    3082 NL          54.8749     8.6211    66.6059 NL            1 RES     
    3083 CH2         54.5899     8.6136    65.2431 CH2           1 RES     
    3084 CH2         55.7854     9.4137    64.6934 CH2           1 RES     
    3085 OA          55.6706     9.5249    63.2170 OA            1 RES     
    3086 P           56.4230     8.2715    62.5668 P             1 RES     
    3087 OM          57.9570     8.3715    63.0107 OM            1 RES     
    3088 OM          55.6664     6.9594    63.0824 OM            1 RES     
    3089 OA          56.3212     8.3558    60.9722 OA            1 RES     
    3090 CH2         57.0284     7.1799    60.4044 CH2           1 RES     
    3091 CH1         57.5667     7.4430    59.1855 CH1           1 RES     
    3092 OE          58.8322     7.7244    58.4924 OE            1 RES     
    3093 C           59.6375     6.9206    59.4698 C             1 RES     
    3094 O           59.1662     6.3245    60.4370 O             1 RES     
    3095 CH2         60.9099     6.8845    58.8746 CH2           1 RES     
    3096 CH2         61.0605     7.6249    57.5327 CH2           1 RES     
    3097 CH2         62.4471     7.3255    56.9332 CH2           1 RES     
    3098 CH2         62.5977     8.0658    55.5913 CH2           1 RES     
    3099 CH2         63.9843     7.7664    54.9918 CH2           1 RES     
    3100 CH2         64.1349     8.5067    53.6498 CH2           1 RES     
    3101 CH2         65.5215     8.2073    53.0503 CH2           1 RES     
    3102 CH2         65.6721     8.9476    51.7084 CH2           1 RES     
    3103 CH2         67.0586     8.6482    51.1089 CH2           1 RES     
    3104 CH2         67.2093     9.3885    49.7670 CH2           1 RES     
    3105 CH2         68.5958     9.0891    49.1675 CH2           1 RES     
    3106 CH2         68.7465     9.8294    47.8255 CH2           1 RES     
    3107 CH2         70.1330     9.5300    47.2260 CH2           1 RES     
    3108 CH2         70.2836    10.2703    45.8841 CH2           1 RES     
    3109 CH2         71.6702     9.9709    45.2846 CH2           1 RES     
    3110 CH2         71.8208    10.7112    43.9426 CH2           1 RES     
    3111 CH3         73.1444    10.4254    43.3704 CH3           1 RES     
    3112 CH2         56.7508     8.7429    59.3123 CH2           1 RES     
    3113 OE          56.8409     9.3691    57.9916 OE            1 RES     
    3114 C           56.0169    10.5900    58.2753 C             1 RES     
    3115 O           55.4903    10.8388    59.3587 O             1 RES     
    3116 CH2         56.2031    11.3703    57.1216 CH2           1 RES     
    3117 CH2         57.1056    10.7714    56.0269 CH2           1 RES     
    3118 CH2         57.3545    11.8256    54.9322 CH2           1 RES     
    3119 CH2         58.2571    11.2267    53.8375 CH2           1 RES     
    3120 CH2         58.5060    12.2809    52.7428 CH2           1 RES     
    3121 CH2         59.4085    11.6820    51.6481 CH2           1 RES     
    3122 CH2         59.6574    12.7362    50.5534 CH2           1 RES     
    3123 CH2         60.5600    12.1373    49.4587 CH2           1 RES     
    3124 CH2         60.8089    13.1914    48.3641 CH2           1 RES     
    3125 CH2         61.7114    12.5925    47.2694 CH2           1 RES     
    3126 CH2         61.9603    13.6467    46.1747 CH2           1 RES     
    3127 CH2         62.8629    13.0478    45.0800 CH2           1 RES     
    3128 CH2         63.1118    14.1020    43.9853 CH2           1 RES     
    3129 CH2         64.0143    13.5031    42.8906 CH2           1 RES     
    3130 CH2         64.2632    14.5573    41.7959 CH2           1 RES     
    3131 CH2         65.1658    13.9584    40.7012 CH2           1 RES     
    3132 CH3         65.4034    14.9647    39.6563 CH3           1 RES     
    3133 CH3         17.4388    47.3165    67.0740 CH3           1 RES     
    3134 CH3         18.6709    45.3263    66.8419 CH3           1 RES     
    3135 CH3         16.5004    45.2894    67.1072 CH3           1 RES     
    3136 NL          17.5198    45.9678    66.6059 NL            1 RES     
    3137 CH2         17.2348    45.9619    65.2431 CH2           1 RES     
    3138 CH2         18.4350    46.7549    64.6934 CH2           1 RES     
    3139 OA          18.3209    46.8668    63.2170 OA            1 RES     
    3140 P           19.0659    45.6090    62.5668 P             1 RES     
    3141 OM          20.6004    45.7000    63.0107 OM            1 RES     
    3142 OM          18.3016    44.3014    63.0824 OM            1 RES     
    3143 OA          18.9646    45.6939    60.9722 OA            1 RES     
    3144 CH2         19.6648    44.5139    60.4044 CH2           1 RES     
    3145 CH1         20.2047    44.7739    59.1855 CH1           1 RES     
    3146 OE          21.4718    45.0478    58.4924 OE            1 RES     
    3147 C           22.2724    44.2393    59.4698 C             1 RES     
    3148 O           21.7976    43.6459    60.4370 O             1 RES     
    3149 CH2         23.5446    44.1958    58.8746 CH2           1 RES     
    3150 CH2         23.6995    44.9352    57.5327 CH2           1 RES     
    3151 CH2         25.0843    44.6276    56.9332 CH2           1 RES     
    3152 CH2         25.2393    45.3671    55.5913 CH2           1 RES     
    3153 CH2         26.6241    45.0595    54.9918 CH2           1 RES     
    3154 CH2         26.7790    45.7989    53.6498 CH2           1 RES     
    3155 CH2         28.1638    45.4914    53.0503 CH2           1 RES     
    3156 CH2         28.3188    46.2308    51.7084 CH2           1 RES     
    3157 CH2         29.7035    45.9232    51.1089 CH2           1 RES     
    3158 CH2         29.8585    46.6627    49.7670 CH2           1 RES     
    3159 CH2         31.2433    46.3551    49.1675 CH2           1 RES     
    3160 CH2         31.3983    47.0945    47.8255 CH2           1 RES     
    3161 CH2         32.7830    46.7870    47.2260 CH2           1 RES     
    3162 CH2         32.9380    47.5264    45.8841 CH2           1 RES     
    3163 CH2         34.3228    47.2188    45.2846 CH2           1 RES     
    3164 CH2         34.4778    47.9583    43.9426 CH2           1 RES     
    3165 CH3         35.7996    47.6647    43.3704 CH3           1 RES     
    3166 CH2         19.3964    46.0785    59.3123 CH2           1 RES     
    3167 OE          19.4902    46.7041    57.9916 OE            1 RES     
    3168 C           18.6734    47.9299    58.2753 C             1 RES     
    3169 O           18.1483    48.1818    59.3587 O             1 RES     
    3170 CH2         18.8642    48.7091    57.1216 CH2           1 RES     
    3171 CH2         19.7632    48.1049    56.0269 CH2           1 RES     
    3172 CH2         20.0183    49.1576    54.9322 CH2           1 RES     
    3173 CH2         20.9173    48.5534    53.8375 CH2           1 RES     
    3174 CH2         21.1724    49.6061    52.7428 CH2           1 RES     
    3175 CH2         22.0714    49.0019    51.6481 CH2           1 RES     
    3176 CH2         22.3265    50.0546    50.5534 CH2           1 RES     
    3177 CH2         23.2255    49.4504    49.4587 CH2           1 RES     
    3178 CH2         23.4806    50.5031    48.3641 CH2           1 RES     
    3179 CH2         24.3796    49.8989    47.2694 CH2           1 RES     
    3180 CH2         24.6347    50.9516    46.1747 CH2           1 RES     
    3181 CH2         25.5337    50.3475    45.0800 CH2           1 RES     
    3182 CH2         25.7888    51.4002    43.9853 CH2           1 RES     
    3183 CH2         26.6878    50.7960    42.8906 CH2           1 RES     
    3184 CH2         26.9429    51.8487    41.7959 CH2           1 RES     
    3185 CH2         27.8419    51.2445    40.7012 CH2           1 RES     
    3186 CH3         28.0854    52.2493    39.6563 CH3           1 RES     
    3187 CH3          9.9694    54.7860    67.0740 CH3           1 RES     
    3188 CH3          9.5847    52.4770    66.8419 CH3           1 RES     
    3189 CH3          7.9277    53.8796    67.1072 CH3           1 RES     
    3190 NL           9.1416    53.7181    66.6059 NL            1 RES     
    3191 CH2          8.9233    53.9015    65.2431 CH2           1 RES     
    3192 CH2         10.3486    53.7071    64.6934 CH2           1 RES     
    3193 OA          10.3365    53.8665    63.2170 OA            1 RES     
    3194 P           10.0681    52.4294    62.5668 P             1 RES     
    3195 OM          11.2823    51.4868    63.0107 OM            1 RES     
    3196 OM           8.6316    51.9495    63.0824 OM            1 RES     
    3197 OA          10.0478    52.5601    60.9722 OA            1 RES     
    3198 CH2          9.7970    51.2110    60.4044 CH2           1 RES     
    3199 CH1         10.3744    51.0508    59.1855 CH1           1 RES     
    3200 OE          11.5080    50.4220    58.4924 OE            1 RES     
    3201 C           11.5774    49.2863    59.4698 C             1 RES     
    3202 O           10.8293    49.1528    60.4370 O             1 RES     
    3203 CH2         12.5057    48.4152    58.8746 CH2           1 RES     
    3204 CH2         13.1095    48.8693    57.5327 CH2           1 RES     
    3205 CH2         13.9484    47.7255    56.9332 CH2           1 RES     
    3206 CH2         14.5522    48.1795    55.5913 CH2           1 RES     
    3207 CH2         15.3912    47.0357    54.9918 CH2           1 RES     
    3208 CH2         15.9950    47.4898    53.6498 CH2           1 RES     
    3209 CH2         16.8340    46.3459    53.0503 CH2           1 RES     
    3210 CH2         17.4378    46.8000    51.7084 CH2           1 RES     
    3211 CH2         18.2767    45.6562    51.1089 CH2           1 RES     
    3212 CH2         18.8805    46.1103    49.7670 CH2           1 RES     
    3213 CH2         19.7195    44.9664    49.1675 CH2           1 RES     
    3214 CH2         20.3233    45.4205    47.8255 CH2           1 RES     
    3215 CH2         21.1622    44.2767    47.2260 CH2           1 RES     
    3216 CH2         21.7661    44.7308    45.8841 CH2           1 RES     
    3217 CH2         22.6050    43.5869    45.2846 CH2           1 RES     
    3218 CH2         23.2088    44.0410    43.9426 CH2           1 RES     
    3219 CH3         24.0096    42.9491    43.3704 CH3           1 RES     
    3220 CH2         10.6261    52.5648    59.3123 CH2           1 RES     
    3221 OE          11.1089    52.9736    57.9916 OE            1 RES     
    3222 C           11.3022    54.4338    58.2753 C             1 RES     
    3223 O           11.0732    54.9693    59.3587 O             1 RES     
    3224 CH2         11.9591    54.8942    57.1216 CH2           1 RES     
    3225 CH2         12.2372    53.8474    56.0269 CH2           1 RES     
    3226 CH2         13.1228    54.4711    54.9322 CH2           1 RES     
    3227 CH2         13.4009    53.4242    53.8375 CH2           1 RES     
    3228 CH2         14.2864    54.0480    52.7428 CH2           1 RES     
    3229 CH2         14.5645    53.0011    51.6481 CH2           1 RES     
    3230 CH2         15.4501    53.6248    50.5534 CH2           1 RES     
    3231 CH2         15.7282    52.5780    49.4587 CH2           1 RES     
    3232 CH2         16.6138    53.2017    48.3641 CH2           1 RES     
    3233 CH2         16.8919    52.1549    47.2694 CH2           1 RES     
    3234 CH2         17.7774    52.7786    46.1747 CH2           1 RES     
    3235 CH2         18.0555    51.7317    45.0800 CH2           1 RES     
    3236 CH2         18.9411    52.3555    43.9853 CH2           1 RES     
    3237 CH2         19.2192    51.3086    42.8906 CH2           1 RES     
    3238 CH2         20.1047    51.9324    41.7959 CH2           1 RES     
    3239 CH2         20.3828    50.8855    40.7012 CH2           1 RES     
    3240 CH3         21.2281    51.4809    39.6563 CH3           1 RES     
    3241 CH3         24.9083    54.7860    67.0740 CH3           1 RES     
    3242 CH3         25.6632    52.5703    66.8419 CH3           1 RES     
    3243 CH3         23.5396    53.0205    67.1072 CH3           1 RES     
    3244 NL          24.6851    53.4533    66.6059 NL            1 RES     
    3245 CH2         24.4060    53.5114    65.2431 CH2           1 RES     
    3246 CH2         25.7533    54.0155    64.6934 CH2           1 RES     
    3247 OA          25.6672    54.1501    63.2170 OA            1 RES     
    3248 P           26.1116    52.7574    62.5668 P             1 RES     
    3249 OM          27.6274    52.5024    63.0107 OM            1 RES     
    3250 OM          25.0738    51.6541    63.0824 OM            1 RES     
    3251 OA          26.0318    52.8628    60.9722 OA            1 RES     
    3252 CH2         26.4500    51.5559    60.4044 CH2           1 RES     
    3253 CH1         27.0344    51.6884    59.1855 CH1           1 RES     
    3254 OE          28.3306    51.6716    58.4924 OE            1 RES     
    3255 C           28.9297    50.7043    59.4698 C             1 RES     
    3256 O           28.3342    50.2323    60.4370 O             1 RES     
    3257 CH2         30.1599    50.3769    58.8746 CH2           1 RES     
    3258 CH2         30.4765    51.0628    57.5327 CH2           1 RES     
    3259 CH2         31.7572    50.4529    56.9332 CH2           1 RES     
    3260 CH2         32.0739    51.1389    55.5913 CH2           1 RES     
    3261 CH2         33.3546    50.5290    54.9918 CH2           1 RES     
    3262 CH2         33.6712    51.2149    53.6498 CH2           1 RES     
    3263 CH2         34.9519    50.6050    53.0503 CH2           1 RES     
    3264 CH2         35.2686    51.2909    51.7084 CH2           1 RES     
    3265 CH2         36.5493    50.6810    51.1089 CH2           1 RES     
    3266 CH2         36.8659    51.3669    49.7670 CH2           1 RES     
    3267 CH2         38.1467    50.7570    49.1675 CH2           1 RES     
    3268 CH2         38.4633    51.4430    47.8255 CH2           1 RES     
    3269 CH2         39.7440    50.8330    47.2260 CH2           1 RES     
    3270 CH2         40.0607    51.5190    45.8841 CH2           1 RES     
    3271 CH2         41.3414    50.9091    45.2846 CH2           1 RES     
    3272 CH2         41.6580    51.5950    43.9426 CH2           1 RES     
    3273 CH3         42.8805    51.0128    43.3704 CH3           1 RES     
    3274 CH2         26.5388    53.1410    59.3123 CH2           1 RES     
    3275 OE          26.7703    53.7297    57.9916 OE            1 RES     
    3276 C           26.2488    55.1072    58.2753 C             1 RES     
    3277 O           25.7935    55.4703    59.3587 O             1 RES     
    3278 CH2         26.6093    55.8239    57.1216 CH2           1 RES     
    3279 CH2         27.3501    55.0337    56.0269 CH2           1 RES     
    3280 CH2         27.8345    56.0025    54.9322 CH2           1 RES     
    3281 CH2         28.5754    55.2123    53.8375 CH2           1 RES     
    3282 CH2         29.0598    56.1811    52.7428 CH2           1 RES     
    3283 CH2         29.8006    55.3909    51.6481 CH2           1 RES     
    3284 CH2         30.2850    56.3597    50.5534 CH2           1 RES     
    3285 CH2         31.0258    55.5695    49.4587 CH2           1 RES     
    3286 CH2         31.5102    56.5384    48.3641 CH2           1 RES     
    3287 CH2         32.2511    55.7482    47.2694 CH2           1 RES     
    3288 CH2         32.7355    56.7170    46.1747 CH2           1 RES     
    3289 CH2         33.4763    55.9268    45.0800 CH2           1 RES     
    3290 CH2         33.9607    56.8956    43.9853 CH2           1 RES     
    3291 CH2         34.7016    56.1054    42.8906 CH2           1 RES     
    3292 CH2         35.1860    57.0742    41.7959 CH2           1 RES     
    3293 CH2         35.9268    56.2840    40.7012 CH2           1 RES     
    3294 CH3         36.3892    57.2088    39.6563 CH3           1 RES     
    3295 CH3          9.9694    24.9083    67.0740 CH3           1 RES     
    3296 CH3         11.0031    22.8081    66.8419 CH3           1 RES     
    3297 CH3          8.8392    22.9815    67.1072 CH3           1 RES     
    3298 NL           9.9195    23.5580    66.6059 NL            1 RES     
    3299 CH2          9.6352    23.5797    65.2431 CH2           1 RES     
    3300 CH2         10.9065    24.2529    64.6934 CH2           1 RES     
    3301 OA          10.8038    24.3753    63.2170 OA            1 RES     
    3302 P           11.4236    23.0513    62.5668 P             1 RES     
    3303 OM          12.9597    22.9934    63.0107 OM            1 RES     
    3304 OM          10.5363    21.8237    63.0824 OM            1 RES     
    3305 OA          11.3309    23.1456    60.9722 OA            1 RES     
    3306 CH2         11.9137    21.9033    60.4044 CH2           1 RES     
    3307 CH1         12.4762    22.1099    59.1855 CH1           1 RES     
    3308 OE          13.7639    22.2599    58.4924 OE            1 RES     
    3309 C           14.4824    21.3777    59.4698 C             1 RES     
    3310 O           13.9525    20.8330    60.4370 O             1 RES     
    3311 CH2         15.7444    21.2112    58.8746 CH2           1 RES     
    3312 CH2         15.9702    21.9322    57.5327 CH2           1 RES     
    3313 CH2         17.3188    21.4920    56.9332 CH2           1 RES     
    3314 CH2         17.5446    22.2130    55.5913 CH2           1 RES     
    3315 CH2         18.8931    21.7729    54.9918 CH2           1 RES     
    3316 CH2         19.1189    22.4938    53.6498 CH2           1 RES     
    3317 CH2         20.4674    22.0537    53.0503 CH2           1 RES     
    3318 CH2         20.6932    22.7747    51.7084 CH2           1 RES     
    3319 CH2         22.0417    22.3345    51.1089 CH2           1 RES     
    3320 CH2         22.2675    23.0555    49.7670 CH2           1 RES     
    3321 CH2         23.6160    22.6154    49.1675 CH2           1 RES     
    3322 CH2         23.8418    23.3363    47.8255 CH2           1 RES     
    3323 CH2         25.1903    22.8962    47.2260 CH2           1 RES     
    3324 CH2         25.4161    23.6172    45.8841 CH2           1 RES     
    3325 CH2         26.7647    23.1770    45.2846 CH2           1 RES     
    3326 CH2         26.9905    23.8980    43.9426 CH2           1 RES     
    3327 CH3         28.2777    23.4778    43.3704 CH3           1 RES     
    3328 CH2         11.7980    23.4866    59.3123 CH2           1 RES     
    3329 OE          11.9519    24.1002    57.9916 OE            1 RES     
    3330 C           11.2575    25.3992    58.2753 C             1 RES     
    3331 O           10.7593    25.7008    59.3587 O             1 RES     
    3332 CH2         11.5228    26.1563    57.1216 CH2           1 RES     
    3333 CH2         12.3591    25.4680    56.0269 CH2           1 RES     
    3334 CH2         12.7149    26.4910    54.9322 CH2           1 RES     
    3335 CH2         13.5512    25.8027    53.8375 CH2           1 RES     
    3336 CH2         13.9070    26.8257    52.7428 CH2           1 RES     
    3337 CH2         14.7433    26.1374    51.6481 CH2           1 RES     
    3338 CH2         15.0991    27.1605    50.5534 CH2           1 RES     
    3339 CH2         15.9354    26.4721    49.4587 CH2           1 RES     
    3340 CH2         16.2912    27.4952    48.3641 CH2           1 RES     
    3341 CH2         17.1275    26.8068    47.2694 CH2           1 RES     
    3342 CH2         17.4833    27.8299    46.1747 CH2           1 RES     
    3343 CH2         18.3196    27.1415    45.0800 CH2           1 RES     
    3344 CH2         18.6754    28.1646    43.9853 CH2           1 RES     
    3345 CH2         19.5117    27.4763    42.8906 CH2           1 RES     
    3346 CH2         19.8675    28.4993    41.7959 CH2           1 RES     
    3347 CH2         20.7038    27.8110    40.7012 CH2           1 RES     
    3348 CH3         21.0434    28.7875    39.6563 CH3           1 RES     
    3349 CH3         32.3777    32.3777    67.0740 CH3           1 RES     
    3350 CH3         32.3558    30.0370    66.8419 CH3           1 RES     
    3351 CH3         30.5013    31.1656    67.1072 CH3           1 RES     
    3352 NL          31.7255    31.1943    66.6059 NL            1 RES     
    3353 CH2         31.4814    31.3416    65.2431 CH2           1 RES     
    3354 CH2         32.9197    31.3707    64.6934 CH2           1 RES     
    3355 OA          32.8830    31.5263    63.2170 OA            1 RES     
    3356 P           32.8407    30.0650    62.5668 P             1 RES     
    3357 OM          34.1865    29.3221    63.0107 OM            1 RES     
    3358 OM          31.4960    29.3680    63.0824 OM            1 RES     
    3359 OA          32.8004    30.1909    60.9722 OA            1 RES     
    3360 CH2         32.7619    28.8193    60.4044 CH2           1 RES     
    3361 CH1         33.3572    28.7506    59.1855 CH1           1 RES     
    3362 OE          34.5746    28.3052    58.4924 OE            1 RES     
    3363 C           34.8193    27.1940    59.4698 C             1 RES     
    3364 O           34.1010    26.9460    60.4370 O             1 RES     
    3365 CH2         35.8714    26.4774    58.8746 CH2           1 RES     
    3366 CH2         36.3975    27.0197    57.5327 CH2           1 RES     
    3367 CH2         37.4037    26.0198    56.9332 CH2           1 RES     
    3368 CH2         37.9298    26.5621    55.5913 CH2           1 RES     
    3369 CH2         38.9360    25.5622    54.9918 CH2           1 RES     
    3370 CH2         39.4621    26.1045    53.6498 CH2           1 RES     
    3371 CH2         40.4683    25.1046    53.0503 CH2           1 RES     
    3372 CH2         40.9944    25.6468    51.7084 CH2           1 RES     
    3373 CH2         42.0006    24.6470    51.1089 CH2           1 RES     
    3374 CH2         42.5267    25.1892    49.7670 CH2           1 RES     
    3375 CH2         43.5329    24.1893    49.1675 CH2           1 RES     
    3376 CH2         44.0590    24.7316    47.8255 CH2           1 RES     
    3377 CH2         45.0652    23.7317    47.2260 CH2           1 RES     
    3378 CH2         45.5912    24.2740    45.8841 CH2           1 RES     
    3379 CH2         46.5975    23.2741    45.2846 CH2           1 RES     
    3380 CH2         47.1235    23.8164    43.9426 CH2           1 RES     
    3381 CH3         48.0840    22.8619    43.3704 CH3           1 RES     
    3382 CH2         33.3709    30.2853    59.3123 CH2           1 RES     
    3383 OE          33.7845    30.7640    57.9916 OE            1 RES     
    3384 C           33.7490    32.2365    58.2753 C             1 RES     
    3385 O           33.4397    32.7300    59.3587 O             1 RES     
    3386 CH2         34.3265    32.7933    57.1216 CH2           1 RES     
    3387 CH2         34.7636    31.8022    56.0269 CH2           1 RES     
    3388 CH2         35.5417    32.5557    54.9322 CH2           1 RES     
    3389 CH2         35.9789    31.5647    53.8375 CH2           1 RES     
    3390 CH2         36.7569    32.3182    52.7428 CH2           1 RES     
    3391 CH2         37.1941    31.3272    51.6481 CH2           1 RES     
    3392 CH2         37.9721    32.0807    50.5534 CH2           1 RES     
    3393 CH2         38.4093    31.0897    49.4587 CH2           1 RES     
    3394 CH2         39.1873    31.8432    48.3641 CH2           1 RES     
    3395 CH2         39.6245    30.8522    47.2694 CH2           1 RES     
    3396 CH2         40.4025    31.6057    46.1747 CH2           1 RES     
    3397 CH2         40.8397    30.6147    45.0800 CH2           1 RES     
    3398 CH2         41.6177    31.3682    43.9853 CH2           1 RES     
    3399 CH2         42.0549    30.3772    42.8906 CH2           1 RES     
    3400 CH2         42.8330    31.1307    41.7959 CH2           1 RES     
    3401 CH2         43.2701    30.1397    40.7012 CH2           1 RES     
    3402 CH3         44.0128    30.8590    39.6563 CH3           1 RES     
    3403 CH3         47.3165    24.9083    67.0740 CH3           1 RES     
    3404 CH3         48.0692    22.6918    66.8419 CH3           1 RES     
    3405 CH3         45.9460    23.1443    67.1072 CH3           1 RES     
    3406 NL          47.0920    23.5758    66.6059 NL            1 RES     
    3407 CH2         46.8129    23.6343    65.2431 CH2           1 RES     
    3408 CH2         48.1608    24.1369    64.6934 CH2           1 RES     
    3409 OA          48.0748    24.2716    63.2170 OA            1 RES     
    3410 P           48.5177    22.8784    62.5668 P             1 RES     
    3411 OM          50.0333    22.6218    63.0107 OM            1 RES     
    3412 OM          47.4788    21.7763    63.0824 OM            1 RES     
    3413 OA          48.4380    22.9839    60.9722 OA            1 RES     
    3414 CH2         48.8548    21.6766    60.4044 CH2           1 RES     
    3415 CH1         49.4394    21.8085    59.1855 CH1           1 RES     
    3416 OE          50.7356    21.7903    58.4924 OE            1 RES     
    3417 C           51.3337    20.8223    59.4698 C             1 RES     
    3418 O           50.7376    20.3510    60.4370 O             1 RES     
    3419 CH2         52.5635    20.4937    58.8746 CH2           1 RES     
    3420 CH2         52.8809    21.1793    57.5327 CH2           1 RES     
    3421 CH2         54.1609    20.5680    56.9332 CH2           1 RES     
    3422 CH2         54.4783    21.2536    55.5913 CH2           1 RES     
    3423 CH2         55.7584    20.6424    54.9918 CH2           1 RES     
    3424 CH2         56.0757    21.3280    53.6498 CH2           1 RES     
    3425 CH2         57.3558    20.7167    53.0503 CH2           1 RES     
    3426 CH2         57.6732    21.4023    51.7084 CH2           1 RES     
    3427 CH2         58.9532    20.7910    51.1089 CH2           1 RES     
    3428 CH2         59.2706    21.4767    49.7670 CH2           1 RES     
    3429 CH2         60.5507    20.8654    49.1675 CH2           1 RES     
    3430 CH2         60.8681    21.5510    47.8255 CH2           1 RES     
    3431 CH2         62.1481    20.9397    47.2260 CH2           1 RES     
    3432 CH2         62.4655    21.6253    45.8841 CH2           1 RES     
    3433 CH2         63.7456    21.0141    45.2846 CH2           1 RES     
    3434 CH2         64.0629    21.6997    43.9426 CH2           1 RES     
    3435 CH3         65.2848    21.1162    43.3704 CH3           1 RES     
    3436 CH2         48.9453    23.2615    59.3123 CH2           1 RES     
    3437 OE          49.1775    23.8500    57.9916 OE            1 RES     
    3438 C           48.6575    25.2281    58.2753 C             1 RES     
    3439 O           48.2025    25.5917    59.3587 O             1 RES     
    3440 CH2         49.0186    25.9444    57.1216 CH2           1 RES     
    3441 CH2         49.7587    25.1534    56.0269 CH2           1 RES     
    3442 CH2         50.2441    26.1217    54.9322 CH2           1 RES     
    3443 CH2         50.9841    25.3307    53.8375 CH2           1 RES     
    3444 CH2         51.4695    26.2990    52.7428 CH2           1 RES     
    3445 CH2         52.2095    25.5081    51.6481 CH2           1 RES     
    3446 CH2         52.6949    26.4764    50.5534 CH2           1 RES     
    3447 CH2         53.4349    25.6854    49.4587 CH2           1 RES     
    3448 CH2         53.9204    26.6537    48.3641 CH2           1 RES     
    3449 CH2         54.6604    25.8627    47.2694 CH2           1 RES     
    3450 CH2         55.1458    26.8310    46.1747 CH2           1 RES     
    3451 CH2         55.8858    26.0401    45.0800 CH2           1 RES     
    3452 CH2         56.3712    27.0084    43.9853 CH2           1 RES     
    3453 CH2         57.1112    26.2174    42.8906 CH2           1 RES     
    3454 CH2         57.5967    27.1857    41.7959 CH2           1 RES     
    3455 CH2         58.3367    26.3947    40.7012 CH2           1 RES     
    3456 CH3         58.8000    27.3190    39.6563 CH3           1 RES     
    3457 CH3         52.8774    24.9083    14.2386 CH3           1 RES     
    3458 CH3         51.7783    22.8416    14.4706 CH3           1 RES     
    3459 CH3         53.9466    22.9470    14.2054 CH3           1 RES     
    3460 NL          52.8849    23.5571    14.7067 NL            1 RES     
    3461 CH2         53.1697    23.5699    16.0695 CH2           1 RES     
    3462 CH2         51.9202    24.2826    16.6192 CH2           1 RES     
    3463 OA          52.0267    24.4018    18.0956 OA            1 RES     
    3464 P           51.3656    23.0978    18.7458 P             1 RES     
    3465 OM          49.8285    23.0882    18.3018 OM            1 RES     
    3466 OM          52.2140    21.8431    18.2302 OM            1 RES     
    3467 OA          51.4612    23.1892    20.3403 OA            1 RES     
    3468 CH2         50.8397    21.9659    20.9081 CH2           1 RES     
    3469 CH1         50.2840    22.1899    22.1270 CH1           1 RES     
    3470 OE          49.0017    22.3803    22.8202 OE            1 RES     
    3471 C           48.2558    21.5211    21.8428 C             1 RES     
    3472 O           48.7684    20.9601    20.8756 O             1 RES     
    3473 CH2         46.9892    21.3943    22.4379 CH2           1 RES     
    3474 CH2         46.7861    22.1220    23.7799 CH2           1 RES     
    3475 CH2         45.4245    21.7244    24.3794 CH2           1 RES     
    3476 CH2         45.2214    22.4521    25.7213 CH2           1 RES     
    3477 CH2         43.8597    22.0545    26.3208 CH2           1 RES     
    3478 CH2         43.6567    22.7822    27.6628 CH2           1 RES     
    3479 CH2         42.2950    22.3846    28.2622 CH2           1 RES     
    3480 CH2         42.0919    23.1123    29.6042 CH2           1 RES     
    3481 CH2         40.7303    22.7147    30.2037 CH2           1 RES     
    3482 CH2         40.5272    23.4424    31.5456 CH2           1 RES     
    3483 CH2         39.1656    23.0448    32.1451 CH2           1 RES     
    3484 CH2         38.9625    23.7725    33.4871 CH2           1 RES     
    3485 CH2         37.6008    23.3749    34.0866 CH2           1 RES     
    3486 CH2         37.3978    24.1026    35.4285 CH2           1 RES     
    3487 CH2         36.0361    23.7050    36.0280 CH2           1 RES     
    3488 CH2         35.8330    24.4328    37.3699 CH2           1 RES     
    3489 CH3         34.5333    24.0532    37.9422 CH3           1 RES     
    3490 CH2         51.0051    23.5447    22.0003 CH2           1 RES     
    3491 OE          50.8706    24.1628    23.3210 OE            1 RES     
    3492 C           51.6053    25.4394    23.0373 C             1 RES     
    3493 O           52.1128    25.7252    21.9539 O             1 RES     
    3494 CH2         51.3640    26.2045    24.1910 CH2           1 RES     
    3495 CH2         50.5064    25.5427    25.2857 CH2           1 RES     
    3496 CH2         50.1830    26.5764    26.3804 CH2           1 RES     
    3497 CH2         49.3254    25.9147    27.4751 CH2           1 RES     
    3498 CH2         49.0019    26.9484    28.5698 CH2           1 RES     
    3499 CH2         48.1444    26.2866    29.6645 CH2           1 RES     
    3500 CH2         47.8209    27.3204    30.7591 CH2           1 RES     
    3501 CH2         46.9634    26.6586    31.8538 CH2           1 RES     
    3502 CH2         46.6399    27.6923    32.9485 CH2           1 RES     
    3503 CH2         45.7824    27.0306    34.0432 CH2           1 RES     
    3504 CH2         45.4589    28.0643    35.1379 CH2           1 RES     
    3505 CH2         44.6014    27.4025    36.2326 CH2           1 RES     
    3506 CH2         44.2779    28.4363    37.3273 CH2           1 RES     
    3507 CH2         43.4204    27.7745    38.4220 CH2           1 RES     
    3508 CH2         43.0969    28.8082    39.5167 CH2           1 RES     
    3509 CH2         42.2394    28.1465    40.6114 CH2           1 RES     
    3510 CH3         41.9306    29.1332    41.6563 CH3           1 RES     
    3511 CH3         22.9997    32.3777    14.2386 CH3           1 RES     
    3512 CH3         21.8984    30.3122    14.4706 CH3           1 RES     
    3513 CH3         24.0668    30.4152    14.2054 CH3           1 RES     
    3514 NL          23.0058    31.0265    14.7067 NL            1 RES     
    3515 CH2         23.2906    31.0390    16.0695 CH2           1 RES     
    3516 CH2         22.0418    31.7531    16.6192 CH2           1 RES     
    3517 OA          22.1485    31.8721    18.0956 OA            1 RES     
    3518 P           21.4860    30.5689    18.7458 P             1 RES     
    3519 OM          19.9489    30.5609    18.3018 OM            1 RES     
    3520 OM          22.3329    29.3132    18.2302 OM            1 RES     
    3521 OA          21.5817    30.6602    20.3403 OA            1 RES     
    3522 CH2         20.9589    29.4375    20.9081 CH2           1 RES     
    3523 CH1         20.4034    29.6621    22.1270 CH1           1 RES     
    3524 OE          19.1213    29.8539    22.8202 OE            1 RES     
    3525 C           18.3745    28.9955    21.8428 C             1 RES     
    3526 O           18.8864    28.4339    20.8756 O             1 RES     
    3527 CH2         17.1077    28.8701    22.4379 CH2           1 RES     
    3528 CH2         16.9054    29.5980    23.7799 CH2           1 RES     
    3529 CH2         15.5433    29.2019    24.3794 CH2           1 RES     
    3530 CH2         15.3411    29.9298    25.7213 CH2           1 RES     
    3531 CH2         13.9790    29.5337    26.3208 CH2           1 RES     
    3532 CH2         13.7767    30.2616    27.6628 CH2           1 RES     
    3533 CH2         12.4146    29.8655    28.2622 CH2           1 RES     
    3534 CH2         12.2123    30.5934    29.6042 CH2           1 RES     
    3535 CH2         10.8502    30.1972    30.2037 CH2           1 RES     
    3536 CH2         10.6479    30.9252    31.5456 CH2           1 RES     
    3537 CH2          9.2859    30.5290    32.1451 CH2           1 RES     
    3538 CH2          9.0836    31.2570    33.4871 CH2           1 RES     
    3539 CH2          7.7215    30.8608    34.0866 CH2           1 RES     
    3540 CH2          7.5192    31.5888    35.4285 CH2           1 RES     
    3541 CH2          6.1571    31.1926    36.0280 CH2           1 RES     
    3542 CH2          5.9548    31.9205    37.3699 CH2           1 RES     
    3543 CH3          4.6547    31.5424    37.9422 CH3           1 RES     
    3544 CH2         21.1260    31.0162    22.0003 CH2           1 RES     
    3545 OE          20.9921    31.6344    23.3210 OE            1 RES     
    3546 C           21.7282    32.9102    23.0373 C             1 RES     
    3547 O           22.2360    33.1954    21.9539 O             1 RES     
    3548 CH2         21.4876    33.6755    24.1910 CH2           1 RES     
    3549 CH2         20.6294    33.0147    25.2857 CH2           1 RES     
    3550 CH2         20.3070    34.0488    26.3804 CH2           1 RES     
    3551 CH2         19.4488    33.3879    27.4751 CH2           1 RES     
    3552 CH2         19.1265    34.4220    28.5698 CH2           1 RES     
    3553 CH2         18.2682    33.7612    29.6645 CH2           1 RES     
    3554 CH2         17.9459    34.7952    30.7591 CH2           1 RES     
    3555 CH2         17.0876    34.1344    31.8538 CH2           1 RES     
    3556 CH2         16.7653    35.1685    32.9485 CH2           1 RES     
    3557 CH2         15.9070    34.5076    34.0432 CH2           1 RES     
    3558 CH2         15.5847    35.5417    35.1379 CH2           1 RES     
    3559 CH2         14.7264    34.8809    36.2326 CH2           1 RES     
    3560 CH2         14.4041    35.9150    37.3273 CH2           1 RES     
    3561 CH2         13.5458    35.2541    38.4220 CH2           1 RES     
    3562 CH2         13.2235    36.2882    39.5167 CH2           1 RES     
    3563 CH2         12.3652    35.6274    40.6114 CH2           1 RES     
    3564 CH3         12.0575    36.6144    41.6563 CH3           1 RES     
    3565 CH3          0.5914    39.8471    14.2386 CH3           1 RES     
    3566 CH3         -0.1746    37.6352    14.4706 CH3           1 RES     
    3567 CH3          1.9513    38.0749    14.2054 CH3           1 RES     
    3568 NL           0.8080    38.5134    14.7067 NL            1 RES     
    3569 CH2          1.0874    38.5701    16.0695 CH2           1 RES     
    3570 CH2         -0.2574    39.0809    16.6192 CH2           1 RES     
    3571 OA          -0.1706    39.2151    18.0956 OA            1 RES     
    3572 P           -0.6219    37.8245    18.7458 P             1 RES     
    3573 OM          -2.1390    37.5771    18.3018 OM            1 RES     
    3574 OM           0.4104    36.7162    18.2302 OM            1 RES     
    3575 OA          -0.5416    37.9296    20.3403 OA            1 RES     
    3576 CH2         -0.9663    36.6248    20.9081 CH2           1 RES     
    3577 CH1         -1.5501    36.7602    22.1270 CH1           1 RES     
    3578 OE          -2.8463    36.7498    22.8202 OE            1 RES     
    3579 C           -3.4503    35.7855    21.8428 C             1 RES     
    3580 O           -2.8571    35.3106    20.8756 O             1 RES     
    3581 CH2         -4.6820    35.4642    22.4379 CH2           1 RES     
    3582 CH2         -4.9953    36.1517    23.7799 CH2           1 RES     
    3583 CH2         -6.2790    35.5482    24.3794 CH2           1 RES     
    3584 CH2         -6.5922    36.2357    25.7213 CH2           1 RES     
    3585 CH2         -7.8759    35.6322    26.3208 CH2           1 RES     
    3586 CH2         -8.1892    36.3197    27.6628 CH2           1 RES     
    3587 CH2         -9.4729    35.7161    28.2622 CH2           1 RES     
    3588 CH2         -9.7861    36.4036    29.6042 CH2           1 RES     
    3589 CH2        -11.0699    35.8001    30.2037 CH2           1 RES     
    3590 CH2        -11.3831    36.4876    31.5456 CH2           1 RES     
    3591 CH2        -12.6668    35.8841    32.1451 CH2           1 RES     
    3592 CH2        -12.9801    36.5716    33.4871 CH2           1 RES     
    3593 CH2        -14.2638    35.9680    34.0866 CH2           1 RES     
    3594 CH2        -14.5770    36.6555    35.4285 CH2           1 RES     
    3595 CH2        -15.8607    36.0520    36.0280 CH2           1 RES     
    3596 CH2        -16.1740    36.7395    37.3699 CH2           1 RES     
    3597 CH3        -17.3994    36.1634    37.9422 CH3           1 RES     
    3598 CH2         -1.0473    38.2102    22.0003 CH2           1 RES     
    3599 OE          -1.2759    38.8001    23.3210 OE            1 RES     
    3600 C           -0.7475    40.1750    23.0373 C             1 RES     
    3601 O           -0.2904    40.5358    21.9539 O             1 RES     
    3602 CH2         -1.1044    40.8935    24.1910 CH2           1 RES     
    3603 CH2         -1.8491    40.1070    25.2857 CH2           1 RES     
    3604 CH2         -2.3287    41.0782    26.3804 CH2           1 RES     
    3605 CH2         -3.0735    40.2917    27.4751 CH2           1 RES     
    3606 CH2         -3.5531    41.2629    28.5698 CH2           1 RES     
    3607 CH2         -4.2978    40.4764    29.6645 CH2           1 RES     
    3608 CH2         -4.7774    41.4476    30.7591 CH2           1 RES     
    3609 CH2         -5.5222    40.6611    31.8538 CH2           1 RES     
    3610 CH2         -6.0017    41.6323    32.9485 CH2           1 RES     
    3611 CH2         -6.7465    40.8458    34.0432 CH2           1 RES     
    3612 CH2         -7.2261    41.8170    35.1379 CH2           1 RES     
    3613 CH2         -7.9708    41.0305    36.2326 CH2           1 RES     
    3614 CH2         -8.4504    42.0018    37.3273 CH2           1 RES     
    3615 CH2         -9.1952    41.2153    38.4220 CH2           1 RES     
    3616 CH2         -9.6748    42.1865    39.5167 CH2           1 RES     
    3617 CH2        -10.4195    41.4000    40.6114 CH2           1 RES     
    3618 CH3        -10.8773    42.3270    41.6563 CH3           1 RES     
    3619 CH3         30.4691    32.3777    14.2386 CH3           1 RES     
    3620 CH3         30.4156    30.0375    14.4706 CH3           1 RES     
    3621 CH3         32.3055    31.1057    14.2054 CH3           1 RES     
    3622 NL          31.0828    31.1739    14.7067 NL            1 RES     
    3623 CH2         31.3315    31.3133    16.0695 CH2           1 RES     
    3624 CH2         29.8950    31.3887    16.6192 CH2           1 RES     
    3625 OA          29.9366    31.5430    18.0956 OA            1 RES     
    3626 P           29.9318    30.0811    18.7458 P             1 RES     
    3627 OM          28.5628    29.3820    18.3018 OM            1 RES     
    3628 OM          31.2533    29.3411    18.2302 OM            1 RES     
    3629 OA          29.9761    30.2057    20.3403 OA            1 RES     
    3630 CH2         29.9704    28.8335    20.9081 CH2           1 RES     
    3631 CH1         29.3732    28.7840    22.1270 CH1           1 RES     
    3632 OE          28.1421    28.3781    22.8202 OE            1 RES     
    3633 C           27.8617    27.2754    21.8428 C             1 RES     
    3634 O           28.5716    27.0044    20.8756 O             1 RES     
    3635 CH2         26.7870    26.5932    22.4379 CH2           1 RES     
    3636 CH2         26.2787    27.1521    23.7799 CH2           1 RES     
    3637 CH2         25.2407    26.1852    24.3794 CH2           1 RES     
    3638 CH2         24.7324    26.7441    25.7213 CH2           1 RES     
    3639 CH2         23.6945    25.7772    26.3208 CH2           1 RES     
    3640 CH2         23.1862    26.3361    27.6628 CH2           1 RES     
    3641 CH2         22.1482    25.3692    28.2622 CH2           1 RES     
    3642 CH2         21.6399    25.9282    29.6042 CH2           1 RES     
    3643 CH2         20.6020    24.9613    30.2037 CH2           1 RES     
    3644 CH2         20.0937    25.5202    31.5456 CH2           1 RES     
    3645 CH2         19.0557    24.5533    32.1451 CH2           1 RES     
    3646 CH2         18.5474    25.1122    33.4871 CH2           1 RES     
    3647 CH2         17.5095    24.1453    34.0866 CH2           1 RES     
    3648 CH2         17.0012    24.7042    35.4285 CH2           1 RES     
    3649 CH2         15.9632    23.7373    36.0280 CH2           1 RES     
    3650 CH2         15.4549    24.2963    37.3699 CH2           1 RES     
    3651 CH3         14.4642    23.3733    37.9422 CH3           1 RES     
    3652 CH2         29.4089    30.3184    22.0003 CH2           1 RES     
    3653 OE          29.0110    30.8102    23.3210 OE            1 RES     
    3654 C           29.0940    32.2808    23.0373 C             1 RES     
    3655 O           29.4190    32.7641    21.9539 O             1 RES     
    3656 CH2         28.5347    32.8559    24.1910 CH2           1 RES     
    3657 CH2         28.0659    31.8794    25.2857 CH2           1 RES     
    3658 CH2         27.3125    32.6577    26.3804 CH2           1 RES     
    3659 CH2         26.8436    31.6812    27.4751 CH2           1 RES     
    3660 CH2         26.0903    32.4595    28.5698 CH2           1 RES     
    3661 CH2         25.6214    31.4830    29.6645 CH2           1 RES     
    3662 CH2         24.8680    32.2613    30.7591 CH2           1 RES     
    3663 CH2         24.3992    31.2848    31.8538 CH2           1 RES     
    3664 CH2         23.6458    32.0631    32.9485 CH2           1 RES     
    3665 CH2         23.1769    31.0866    34.0432 CH2           1 RES     
    3666 CH2         22.4236    31.8649    35.1379 CH2           1 RES     
    3667 CH2         21.9547    30.8884    36.2326 CH2           1 RES     
    3668 CH2         21.2013    31.6667    37.3273 CH2           1 RES     
    3669 CH2         20.7325    30.6903    38.4220 CH2           1 RES     
    3670 CH2         19.9791    31.4685    39.5167 CH2           1 RES     
    3671 CH2         19.5103    30.4921    40.6114 CH2           1 RES     
    3672 CH3         18.7911    31.2349    41.6563 CH3           1 RES     
    3673 CH3         15.5303    17.4388    14.2386 CH3           1 RES     
    3674 CH3         15.0228    15.1537    14.4706 CH3           1 RES     
    3675 CH3         17.0843    15.8342    14.2054 CH3           1 RES     
    3676 NL          15.8982    16.1387    14.7067 NL            1 RES     
    3677 CH2         16.1693    16.2271    16.0695 CH2           1 RES     
    3678 CH2         14.7748    16.5803    16.6192 CH2           1 RES     
    3679 OA          14.8457    16.7236    18.0956 OA            1 RES     
    3680 P           14.5567    15.2905    18.7458 P             1 RES     
    3681 OM          13.0779    14.8709    18.3018 OM            1 RES     
    3682 OM          15.7092    14.3078    18.2302 OM            1 RES     
    3683 OA          14.6244    15.4041    20.3403 OA            1 RES     
    3684 CH2         14.3521    14.0592    20.9081 CH2           1 RES     
    3685 CH1         13.7567    14.1268    22.1270 CH1           1 RES     
    3686 OE          12.4701    13.9680    22.8202 OE            1 RES     
    3687 C           11.9807    12.9408    21.8428 C             1 RES     
    3688 O           12.6244    12.5370    20.8756 O             1 RES     
    3689 CH2         10.7939    12.4805    22.4379 CH2           1 RES     
    3690 CH2         10.4039    13.1276    23.7799 CH2           1 RES     
    3691 CH2          9.1978    12.3809    24.3794 CH2           1 RES     
    3692 CH2          8.8078    13.0280    25.7213 CH2           1 RES     
    3693 CH2          7.6017    12.2813    26.3208 CH2           1 RES     
    3694 CH2          7.2118    12.9284    27.6628 CH2           1 RES     
    3695 CH2          6.0057    12.1817    28.2622 CH2           1 RES     
    3696 CH2          5.6157    12.8287    29.6042 CH2           1 RES     
    3697 CH2          4.4096    12.0821    30.2037 CH2           1 RES     
    3698 CH2          4.0197    12.7291    31.5456 CH2           1 RES     
    3699 CH2          2.8136    11.9825    32.1451 CH2           1 RES     
    3700 CH2          2.4236    12.6295    33.4871 CH2           1 RES     
    3701 CH2          1.2175    11.8829    34.0866 CH2           1 RES     
    3702 CH2          0.8275    12.5299    35.4285 CH2           1 RES     
    3703 CH2         -0.3786    11.7832    36.0280 CH2           1 RES     
    3704 CH2         -0.7685    12.4303    37.3699 CH2           1 RES     
    3705 CH3         -1.9198    11.7176    37.9422 CH3           1 RES     
    3706 CH2         14.0900    15.6249    22.0003 CH2           1 RES     
    3707 OE          13.7953    16.1847    23.3210 OE            1 RES     
    3708 C           14.1626    17.6111    23.0373 C             1 RES     
    3709 O           14.5753    18.0220    21.9539 O             1 RES     
    3710 CH2         13.7257    18.2840    24.1910 CH2           1 RES     
    3711 CH2         13.0760    17.4173    25.2857 CH2           1 RES     
    3712 CH2         12.4883    18.3271    26.3804 CH2           1 RES     
    3713 CH2         11.8386    17.4605    27.4751 CH2           1 RES     
    3714 CH2         11.2508    18.3703    28.5698 CH2           1 RES     
    3715 CH2         10.6011    17.5036    29.6645 CH2           1 RES     
    3716 CH2         10.0134    18.4135    30.7591 CH2           1 RES     
    3717 CH2          9.3637    17.5468    31.8538 CH2           1 RES     
    3718 CH2          8.7760    18.4567    32.9485 CH2           1 RES     
    3719 CH2          8.1262    17.5900    34.0432 CH2           1 RES     
    3720 CH2          7.5385    18.4999    35.1379 CH2           1 RES     
    3721 CH2          6.8888    17.6332    36.2326 CH2           1 RES     
    3722 CH2          6.3011    18.5431    37.3273 CH2           1 RES     
    3723 CH2          5.6514    17.6764    38.4220 CH2           1 RES     
    3724 CH2          5.0636    18.5862    39.5167 CH2           1 RES     
    3725 CH2          4.4139    17.7196    40.6114 CH2           1 RES     
    3726 CH3          3.8529    18.5881    41.6563 CH3           1 RES     
    3727 CH3          0.5914    54.7860    14.2386 CH3           1 RES     
    3728 CH3         -0.5635    52.7500    14.4706 CH3           1 RES     
    3729 CH3          1.6069    52.7963    14.2054 CH3           1 RES     
    3730 NL           0.5622    53.4351    14.7067 NL            1 RES     
    3731 CH2          0.8472    53.4401    16.0695 CH2           1 RES     
    3732 CH2         -0.3825    54.1866    16.6192 CH2           1 RES     
    3733 OA          -0.2727    54.3028    18.0956 OA            1 RES     
    3734 P           -0.9690    53.0174    18.7458 P             1 RES     
    3735 OM          -2.5059    53.0495    18.3018 OM            1 RES     
    3736 OM          -0.1552    51.7399    18.2302 OM            1 RES     
    3737 OA          -0.8710    53.1061    20.3403 OA            1 RES     
    3738 CH2         -1.5256    51.9001    20.9081 CH2           1 RES     
    3739 CH1         -2.0750    52.1392    22.1270 CH1           1 RES     
    3740 OE          -3.3516    52.3644    22.8202 OE            1 RES     
    3741 C           -4.1207    51.5258    21.8428 C             1 RES     
    3742 O           -3.6235    50.9511    20.8756 O             1 RES     
    3743 CH2         -5.3902    51.4336    22.4379 CH2           1 RES     
    3744 CH2         -5.5734    52.1665    23.7799 CH2           1 RES     
    3745 CH2         -6.9454    51.8061    24.3794 CH2           1 RES     
    3746 CH2         -7.1286    52.5391    25.7213 CH2           1 RES     
    3747 CH2         -8.5006    52.1787    26.3208 CH2           1 RES     
    3748 CH2         -8.6838    52.9117    27.6628 CH2           1 RES     
    3749 CH2        -10.0557    52.5513    28.2622 CH2           1 RES     
    3750 CH2        -10.2389    53.2842    29.6042 CH2           1 RES     
    3751 CH2        -11.6109    52.9239    30.2037 CH2           1 RES     
    3752 CH2        -11.7941    53.6568    31.5456 CH2           1 RES     
    3753 CH2        -13.1661    53.2964    32.1451 CH2           1 RES     
    3754 CH2        -13.3492    54.0294    33.4871 CH2           1 RES     
    3755 CH2        -14.7212    53.6690    34.0866 CH2           1 RES     
    3756 CH2        -14.9044    54.4020    35.4285 CH2           1 RES     
    3757 CH2        -16.2764    54.0416    36.0280 CH2           1 RES     
    3758 CH2        -16.4596    54.7745    37.3699 CH2           1 RES     
    3759 CH3        -17.7692    54.4305    37.9422 CH3           1 RES     
    3760 CH2         -1.3173    53.4739    22.0003 CH2           1 RES     
    3761 OE          -1.4350    54.0954    23.3210 OE            1 RES     
    3762 C           -0.6657    55.3515    23.0373 C             1 RES     
    3763 O           -0.1507    55.6234    21.9539 O             1 RES     
    3764 CH2         -0.8862    56.1229    24.1910 CH2           1 RES     
    3765 CH2         -1.7614    55.4847    25.2857 CH2           1 RES     
    3766 CH2         -2.0566    56.5268    26.3804 CH2           1 RES     
    3767 CH2         -2.9318    55.8887    27.4751 CH2           1 RES     
    3768 CH2         -3.2271    56.9308    28.5698 CH2           1 RES     
    3769 CH2         -4.1023    56.2926    29.6645 CH2           1 RES     
    3770 CH2         -4.3975    57.3348    30.7591 CH2           1 RES     
    3771 CH2         -5.2727    56.6966    31.8538 CH2           1 RES     
    3772 CH2         -5.5679    57.7388    32.9485 CH2           1 RES     
    3773 CH2         -6.4431    57.1006    34.0432 CH2           1 RES     
    3774 CH2         -6.7384    58.1427    35.1379 CH2           1 RES     
    3775 CH2         -7.6136    57.5046    36.2326 CH2           1 RES     
    3776 CH2         -7.9088    58.5467    37.3273 CH2           1 RES     
    3777 CH2         -8.7840    57.9085    38.4220 CH2           1 RES     
    3778 CH2         -9.0793    58.9507    39.5167 CH2           1 RES     
    3779 CH2         -9.9545    58.3125    40.6114 CH2           1 RES     
    3780 CH3        -10.2363    59.3073    41.6563 CH3           1 RES     
    3781 CH3         37.9386    32.3777    14.2386 CH3           1 RES     
    3782 CH3         37.3282    30.1179    14.4706 CH3           1 RES     
    3783 CH3         39.4183    30.7043    14.2054 CH3           1 RES     
    3784 NL          38.2473    31.0622    14.7067 NL            1 RES     
    3785 CH2         38.5221    31.1382    16.0695 CH2           1 RES     
    3786 CH2         37.1450    31.5543    16.6192 CH2           1 RES     
    3787 OA          37.2223    31.6942    18.0956 OA            1 RES     
    3788 P           36.8687    30.2757    18.7458 P             1 RES     
    3789 OM          35.3725    29.9234    18.3018 OM            1 RES     
    3790 OM          37.9756    29.2417    18.2302 OM            1 RES     
    3791 OA          36.9415    30.3860    20.3403 OA            1 RES     
    3792 CH2         36.6086    29.0549    20.9081 CH2           1 RES     
    3793 CH1         36.0168    29.1493    22.1270 CH1           1 RES     
    3794 OE          34.7244    29.0489    22.8202 OE            1 RES     
    3795 C           34.1890    28.0449    21.8428 C             1 RES     
    3796 O           34.8138    27.6124    20.8756 O             1 RES     
    3797 CH2         32.9825    27.6388    22.4379 CH2           1 RES     
    3798 CH2         32.6223    28.3029    23.7799 CH2           1 RES     
    3799 CH2         31.3836    27.6116    24.3794 CH2           1 RES     
    3800 CH2         31.0233    28.2757    25.7213 CH2           1 RES     
    3801 CH2         29.7847    27.5843    26.3208 CH2           1 RES     
    3802 CH2         29.4244    28.2484    27.6628 CH2           1 RES     
    3803 CH2         28.1857    27.5571    28.2622 CH2           1 RES     
    3804 CH2         27.8255    28.2212    29.6042 CH2           1 RES     
    3805 CH2         26.5868    27.5298    30.2037 CH2           1 RES     
    3806 CH2         26.2265    28.1939    31.5456 CH2           1 RES     
    3807 CH2         24.9879    27.5026    32.1451 CH2           1 RES     
    3808 CH2         24.6276    28.1667    33.4871 CH2           1 RES     
    3809 CH2         23.3889    27.4754    34.0866 CH2           1 RES     
    3810 CH2         23.0286    28.1394    35.4285 CH2           1 RES     
    3811 CH2         21.7900    27.4481    36.0280 CH2           1 RES     
    3812 CH2         21.4297    28.1122    37.3699 CH2           1 RES     
    3813 CH3         20.2474    27.4523    37.9422 CH3           1 RES     
    3814 CH2         36.4176    30.6309    22.0003 CH2           1 RES     
    3815 OE          36.1485    31.2034    23.3210 OE            1 RES     
    3816 C           36.5800    32.6117    23.0373 C             1 RES     
    3817 O           37.0110    33.0035    21.9539 O             1 RES     
    3818 CH2         36.1741    33.3036    24.1910 CH2           1 RES     
    3819 CH2         35.4858    32.4673    25.2857 CH2           1 RES     
    3820 CH2         34.9399    33.4028    26.3804 CH2           1 RES     
    3821 CH2         34.2516    32.5664    27.4751 CH2           1 RES     
    3822 CH2         33.7057    33.5019    28.5698 CH2           1 RES     
    3823 CH2         33.0174    32.6656    29.6645 CH2           1 RES     
    3824 CH2         32.4715    33.6011    30.7591 CH2           1 RES     
    3825 CH2         31.7832    32.7647    31.8538 CH2           1 RES     
    3826 CH2         31.2372    33.7003    32.9485 CH2           1 RES     
    3827 CH2         30.5489    32.8639    34.0432 CH2           1 RES     
    3828 CH2         30.0030    33.7994    35.1379 CH2           1 RES     
    3829 CH2         29.3147    32.9631    36.2326 CH2           1 RES     
    3830 CH2         28.7688    33.8986    37.3273 CH2           1 RES     
    3831 CH2         28.0805    33.0622    38.4220 CH2           1 RES     
    3832 CH2         27.5346    33.9977    39.5167 CH2           1 RES     
    3833 CH2         26.8463    33.1614    40.6114 CH2           1 RES     
    3834 CH3         26.3252    34.0544    41.6563 CH3           1 RES     
    3835 CH3          8.0609     2.5000    14.2386 CH3           1 RES     
    3836 CH3          7.1870     0.3285    14.4706 CH3           1 RES     
    3837 CH3          9.3319     0.6630    14.2054 CH3           1 RES     
    3838 NL           8.2115     1.1572    14.7067 NL            1 RES     
    3839 CH2          8.4934     1.2001    16.0695 CH2           1 RES     
    3840 CH2          7.1753     1.7764    16.6192 CH2           1 RES     
    3841 OA           7.2686     1.9062    18.0956 OA            1 RES     
    3842 P            6.7495     0.5396    18.7458 P             1 RES     
    3843 OM           5.2220     0.3671    18.3018 OM            1 RES     
    3844 OM           7.7260    -0.6183    18.2302 OM            1 RES     
    3845 OA           6.8348     0.6405    20.3403 OA            1 RES     
    3846 CH2          6.3465    -0.6418    20.9081 CH2           1 RES     
    3847 CH1          5.7701    -0.4779    22.1270 CH1           1 RES     
    3848 OE           4.4749    -0.4244    22.8202 OE            1 RES     
    3849 C            3.8242    -1.3579    21.8428 C             1 RES     
    3850 O            4.3934    -1.8614    20.8756 O             1 RES     
    3851 CH2          2.5782    -1.6182    22.4379 CH2           1 RES     
    3852 CH2          2.2991    -0.9161    23.7799 CH2           1 RES     
    3853 CH2          0.9873    -1.4557    24.3794 CH2           1 RES     
    3854 CH2          0.7082    -0.7536    25.7213 CH2           1 RES     
    3855 CH2         -0.6036    -1.2933    26.3208 CH2           1 RES     
    3856 CH2         -0.8827    -0.5912    27.6628 CH2           1 RES     
    3857 CH2         -2.1945    -1.1309    28.2622 CH2           1 RES     
    3858 CH2         -2.4736    -0.4288    29.6042 CH2           1 RES     
    3859 CH2         -3.7854    -0.9685    30.2037 CH2           1 RES     
    3860 CH2         -4.0644    -0.2664    31.5456 CH2           1 RES     
    3861 CH2         -5.3763    -0.8060    32.1451 CH2           1 RES     
    3862 CH2         -5.6553    -0.1039    33.4871 CH2           1 RES     
    3863 CH2         -6.9672    -0.6436    34.0866 CH2           1 RES     
    3864 CH2         -7.2462     0.0585    35.4285 CH2           1 RES     
    3865 CH2         -8.5581    -0.4812    36.0280 CH2           1 RES     
    3866 CH2         -8.8371     0.2209    37.3699 CH2           1 RES     
    3867 CH3        -10.0894    -0.2942    37.9422 CH3           1 RES     
    3868 CH2          6.3436     0.9457    22.0003 CH2           1 RES     
    3869 OE           6.1443     1.5461    23.3210 OE            1 RES     
    3870 C            6.7397     2.8933    23.0373 C             1 RES     
    3871 O            7.2140     3.2313    21.9539 O             1 RES     
    3872 CH2          6.4186     3.6285    24.1910 CH2           1 RES     
    3873 CH2          5.6360     2.8796    25.2857 CH2           1 RES     
    3874 CH2          5.2048     3.8732    26.3804 CH2           1 RES     
    3875 CH2          4.4222     3.1243    27.4751 CH2           1 RES     
    3876 CH2          3.9910     4.1179    28.5698 CH2           1 RES     
    3877 CH2          3.2085     3.3690    29.6645 CH2           1 RES     
    3878 CH2          2.7773     4.3627    30.7591 CH2           1 RES     
    3879 CH2          1.9947     3.6138    31.8538 CH2           1 RES     
    3880 CH2          1.5635     4.6074    32.9485 CH2           1 RES     
    3881 CH2          0.7809     3.8585    34.0432 CH2           1 RES     
    3882 CH2          0.3497     4.8521    35.1379 CH2           1 RES     
    3883 CH2         -0.4328     4.1032    36.2326 CH2           1 RES     
    3884 CH2         -0.8641     5.0968    37.3273 CH2           1 RES     
    3885 CH2         -1.6466     4.3479    38.4220 CH2           1 RES     
    3886 CH2         -2.0778     5.3416    39.5167 CH2           1 RES     
    3887 CH2         -2.8604     4.5926    40.6114 CH2           1 RES     
    3888 CH3         -3.2720     5.5411    41.6563 CH3           1 RES     
    3889 CH3         22.9997    47.3165    14.2386 CH3           1 RES     
    3890 CH3         21.9943    45.2027    14.4706 CH3           1 RES     
    3891 CH3         24.1557    45.4051    14.2054 CH3           1 RES     
    3892 NL          23.0677    45.9670    14.7067 NL            1 RES     
    3893 CH2         23.3517    45.9926    16.0695 CH2           1 RES     
    3894 CH2         22.0715    46.6486    16.6192 CH2           1 RES     
    3895 OA          22.1726    46.7724    18.0956 OA            1 RES     
    3896 P           21.5705    45.4402    18.7458 P             1 RES     
    3897 OM          20.0354    45.3618    18.3018 OM            1 RES     
    3898 OM          22.4742    44.2247    18.2302 OM            1 RES     
    3899 OA          21.6619    45.5358    20.3403 OA            1 RES     
    3900 CH2         21.0958    44.2858    20.9081 CH2           1 RES     
    3901 CH1         20.5306    44.4848    22.1270 CH1           1 RES     
    3902 OE          19.2411    44.6176    22.8202 OE            1 RES     
    3903 C           18.5344    43.7258    21.8428 C             1 RES     
    3904 O           19.0716    43.1883    20.8756 O             1 RES     
    3905 CH2         17.2747    43.5424    22.4379 CH2           1 RES     
    3906 CH2         17.0393    44.2603    23.7799 CH2           1 RES     
    3907 CH2         15.6968    43.8021    24.3794 CH2           1 RES     
    3908 CH2         15.4614    44.5200    25.7213 CH2           1 RES     
    3909 CH2         14.1189    44.0619    26.3208 CH2           1 RES     
    3910 CH2         13.8834    44.7797    27.6628 CH2           1 RES     
    3911 CH2         12.5409    44.3216    28.2622 CH2           1 RES     
    3912 CH2         12.3055    45.0394    29.6042 CH2           1 RES     
    3913 CH2         10.9630    44.5813    30.2037 CH2           1 RES     
    3914 CH2         10.7275    45.2991    31.5456 CH2           1 RES     
    3915 CH2          9.3851    44.8410    32.1451 CH2           1 RES     
    3916 CH2          9.1496    45.5589    33.4871 CH2           1 RES     
    3917 CH2          7.8071    45.1007    34.0866 CH2           1 RES     
    3918 CH2          7.5717    45.8186    35.4285 CH2           1 RES     
    3919 CH2          6.2292    45.3604    36.0280 CH2           1 RES     
    3920 CH2          5.9937    46.0783    37.3699 CH2           1 RES     
    3921 CH3          4.7123    45.6409    37.9422 CH3           1 RES     
    3922 CH2         21.1904    45.8705    22.0003 CH2           1 RES     
    3923 OE          21.0282    46.4820    23.3210 OE            1 RES     
    3924 C           21.7051    47.7902    23.0373 C             1 RES     
    3925 O           22.1993    48.0984    21.9539 O             1 RES     
    3926 CH2         21.4297    48.5437    24.1910 CH2           1 RES     
    3927 CH2         20.6027    47.8442    25.2857 CH2           1 RES     
    3928 CH2         20.2333    48.8624    26.3804 CH2           1 RES     
    3929 CH2         19.4062    48.1629    27.4751 CH2           1 RES     
    3930 CH2         19.0368    49.1811    28.5698 CH2           1 RES     
    3931 CH2         18.2098    48.4816    29.6645 CH2           1 RES     
    3932 CH2         17.8403    49.4998    30.7591 CH2           1 RES     
    3933 CH2         17.0133    48.8003    31.8538 CH2           1 RES     
    3934 CH2         16.6438    49.8185    32.9485 CH2           1 RES     
    3935 CH2         15.8168    49.1190    34.0432 CH2           1 RES     
    3936 CH2         15.4474    50.1372    35.1379 CH2           1 RES     
    3937 CH2         14.6203    49.4377    36.2326 CH2           1 RES     
    3938 CH2         14.2509    50.4559    37.3273 CH2           1 RES     
    3939 CH2         13.4239    49.7564    38.4220 CH2           1 RES     
    3940 CH2         13.0544    50.7746    39.5167 CH2           1 RES     
    3941 CH2         12.2274    50.0751    40.6114 CH2           1 RES     
    3942 CH3         11.8747    51.0471    41.6563 CH3           1 RES     
    3943 CH3          0.5914     2.5000    14.2386 CH3           1 RES     
    3944 CH3          0.4509     0.1635    14.4706 CH3           1 RES     
    3945 CH3          2.3792     1.1606    14.2054 CH3           1 RES     
    3946 NL           1.1599     1.2742    14.7067 NL            1 RES     
    3947 CH2          1.4137     1.4042    16.0695 CH2           1 RES     
    3948 CH2         -0.0191     1.5331    16.6192 CH2           1 RES     
    3949 OA           0.0283     1.6857    18.0956 OA            1 RES     
    3950 P           -0.0310     0.2250    18.7458 P             1 RES     
    3951 OM          -1.4250    -0.4227    18.3018 OM            1 RES     
    3952 OM           1.2621    -0.5636    18.2302 OM            1 RES     
    3953 OA           0.0180     0.3478    20.3403 OA            1 RES     
    3954 CH2         -0.0388    -1.0232    20.9081 CH2           1 RES     
    3955 CH1         -0.6374    -1.0504    22.1270 CH1           1 RES     
    3956 OE          -1.8828    -1.4102    22.8202 OE            1 RES     
    3957 C           -2.2040    -2.5018    21.8428 C             1 RES     
    3958 O           -1.5046    -2.7990    20.8756 O             1 RES     
    3959 CH2         -3.3034    -3.1436    22.4379 CH2           1 RES     
    3960 CH2         -3.7905    -2.5661    23.7799 CH2           1 RES     
    3961 CH2         -4.8637    -3.4937    24.3794 CH2           1 RES     
    3962 CH2         -5.3509    -2.9163    25.7213 CH2           1 RES     
    3963 CH2         -6.4241    -3.8439    26.3208 CH2           1 RES     
    3964 CH2         -6.9112    -3.2664    27.6628 CH2           1 RES     
    3965 CH2         -7.9844    -4.1941    28.2622 CH2           1 RES     
    3966 CH2         -8.4716    -3.6166    29.6042 CH2           1 RES     
    3967 CH2         -9.5448    -4.5442    30.2037 CH2           1 RES     
    3968 CH2        -10.0320    -3.9668    31.5456 CH2           1 RES     
    3969 CH2        -11.1051    -4.8944    32.1451 CH2           1 RES     
    3970 CH2        -11.5923    -4.3170    33.4871 CH2           1 RES     
    3971 CH2        -12.6655    -5.2446    34.0866 CH2           1 RES     
    3972 CH2        -13.1527    -4.6671    35.4285 CH2           1 RES     
    3973 CH2        -14.2259    -5.5948    36.0280 CH2           1 RES     
    3974 CH2        -14.7130    -5.0173    37.3699 CH2           1 RES     
    3975 CH3        -15.7374    -5.9028    37.9422 CH3           1 RES     
    3976 CH2         -0.5446     0.4816    22.0003 CH2           1 RES     
    3977 OE          -0.9240     0.9878    23.3210 OE            1 RES     
    3978 C           -0.7863     2.4543    23.0373 C             1 RES     
    3979 O           -0.4436     2.9252    21.9539 O             1 RES     
    3980 CH2         -1.3239     3.0498    24.1910 CH2           1 RES     
    3981 CH2         -1.8287     2.0915    25.2857 CH2           1 RES     
    3982 CH2         -2.5526     2.8972    26.3804 CH2           1 RES     
    3983 CH2         -3.0575     1.9389    27.4751 CH2           1 RES     
    3984 CH2         -3.7814     2.7446    28.5698 CH2           1 RES     
    3985 CH2         -4.2862     1.7863    29.6645 CH2           1 RES     
    3986 CH2         -5.0101     2.5920    30.7591 CH2           1 RES     
    3987 CH2         -5.5150     1.6337    31.8538 CH2           1 RES     
    3988 CH2         -6.2389     2.4394    32.9485 CH2           1 RES     
    3989 CH2         -6.7437     1.4811    34.0432 CH2           1 RES     
    3990 CH2         -7.4676     2.2868    35.1379 CH2           1 RES     
    3991 CH2         -7.9725     1.3285    36.2326 CH2           1 RES     
    3992 CH2         -8.6964     2.1342    37.3273 CH2           1 RES     
    3993 CH2         -9.2012     1.1759    38.4220 CH2           1 RES     
    3994 CH2         -9.9252     1.9817    39.5167 CH2           1 RES     
    3995 CH2        -10.4300     1.0233    40.6114 CH2           1 RES     
    3996 CH3        -11.1210     1.7924    41.6563 CH3           1 RES     
    3997 CH3         15.5303    39.8471    14.2386 CH3           1 RES     
    3998 CH3         14.9482    37.5799    14.4706 CH3           1 RES     
    3999 CH3         17.0309    38.1924    14.2054 CH3           1 RES     
    4000 NL          15.8554    38.5356    14.7067 NL            1 RES     
    4001 CH2         16.1293    38.6151    16.0695 CH2           1 RES     
    4002 CH2         14.7471    39.0138    16.6192 CH2           1 RES     
    4003 OA          14.8226    39.1547    18.0956 OA            1 RES     
    4004 P           14.4868    37.7319    18.7458 P             1 RES     
    4005 OM          12.9951    37.3609    18.3018 OM            1 RES     
    4006 OM          15.6065    36.7119    18.2302 OM            1 RES     
    4007 OA          14.5582    37.8431    20.3403 OA            1 RES     
    4008 CH2         14.2420    36.5079    20.9081 CH2           1 RES     
    4009 CH1         13.6491    36.5950    22.1270 CH1           1 RES     
    4010 OE          12.3580    36.4784    22.8202 OE            1 RES     
    4011 C           11.8352    35.4678    21.8428 C             1 RES     
    4012 O           12.4653    35.0431    20.8756 O             1 RES     
    4013 CH2         10.6339    35.0466    22.4379 CH2           1 RES     
    4014 CH2         10.2654    35.7061    23.7799 CH2           1 RES     
    4015 CH2          9.0355    34.9994    24.3794 CH2           1 RES     
    4016 CH2          8.6669    35.6589    25.7213 CH2           1 RES     
    4017 CH2          7.4370    34.9521    26.3208 CH2           1 RES     
    4018 CH2          7.0684    35.6117    27.6628 CH2           1 RES     
    4019 CH2          5.8385    34.9049    28.2622 CH2           1 RES     
    4020 CH2          5.4700    35.5644    29.6042 CH2           1 RES     
    4021 CH2          4.2400    34.8577    30.2037 CH2           1 RES     
    4022 CH2          3.8715    35.5172    31.5456 CH2           1 RES     
    4023 CH2          2.6416    34.8104    32.1451 CH2           1 RES     
    4024 CH2          2.2730    35.4699    33.4871 CH2           1 RES     
    4025 CH2          1.0431    34.7632    34.0866 CH2           1 RES     
    4026 CH2          0.6746    35.4227    35.4285 CH2           1 RES     
    4027 CH2         -0.5554    34.7159    36.0280 CH2           1 RES     
    4028 CH2         -0.9239    35.3754    37.3699 CH2           1 RES     
    4029 CH3         -2.0979    34.7008    37.9422 CH3           1 RES     
    4030 CH2         14.0313    38.0814    22.0003 CH2           1 RES     
    4031 OE          13.7551    38.6505    23.3210 OE            1 RES     
    4032 C           14.1690    40.0641    23.0373 C             1 RES     
    4033 O           14.5950    40.4612    21.9539 O             1 RES     
    4034 CH2         13.7544    40.7509    24.1910 CH2           1 RES     
    4035 CH2         13.0766    39.9060    25.2857 CH2           1 RES     
    4036 CH2         12.5190    40.8346    26.3804 CH2           1 RES     
    4037 CH2         11.8413    39.9897    27.4751 CH2           1 RES     
    4038 CH2         11.2837    40.9183    28.5698 CH2           1 RES     
    4039 CH2         10.6059    40.0734    29.6645 CH2           1 RES     
    4040 CH2         10.0483    41.0021    30.7591 CH2           1 RES     
    4041 CH2          9.3705    40.1571    31.8538 CH2           1 RES     
    4042 CH2          8.8129    41.0858    32.9485 CH2           1 RES     
    4043 CH2          8.1352    40.2409    34.0432 CH2           1 RES     
    4044 CH2          7.5776    41.1695    35.1379 CH2           1 RES     
    4045 CH2          6.8998    40.3246    36.2326 CH2           1 RES     
    4046 CH2          6.3422    41.2532    37.3273 CH2           1 RES     
    4047 CH2          5.6644    40.4083    38.4220 CH2           1 RES     
    4048 CH2          5.1069    41.3369    39.5167 CH2           1 RES     
    4049 CH2          4.4291    40.4920    40.6114 CH2           1 RES     
    4050 CH3          3.8968    41.3784    41.6563 CH3           1 RES     
    4051 CH3          0.5914    24.9083    14.2386 CH3           1 RES     
    4052 CH3          0.4253    22.5734    14.4706 CH3           1 RES     
    4053 CH3          2.3644    23.5494    14.2054 CH3           1 RES     
    4054 NL           1.1464    23.6763    14.7067 NL            1 RES     
    4055 CH2          1.4016    23.8035    16.0695 CH2           1 RES     
    4056 CH2         -0.0297    23.9481    16.6192 CH2           1 RES     
    4057 OA           0.0194    24.1002    18.0956 OA            1 RES     
    4058 P           -0.0559    22.6402    18.7458 P             1 RES     
    4059 OM          -1.4569    22.0078    18.3018 OM            1 RES     
    4060 OM           1.2285    21.8375    18.2302 OM            1 RES     
    4061 OA          -0.0056    22.7625    20.3403 OA            1 RES     
    4062 CH2         -0.0774    21.3922    20.9081 CH2           1 RES     
    4063 CH1         -0.6762    21.3716    22.1270 CH1           1 RES     
    4064 OE          -1.9255    21.0254    22.8202 OE            1 RES     
    4065 C           -2.2587    19.9374    21.8428 C             1 RES     
    4066 O           -1.5626    19.6326    20.8756 O             1 RES     
    4067 CH2         -3.3650    19.3077    22.4379 CH2           1 RES     
    4068 CH2         -3.8458    19.8905    23.7799 CH2           1 RES     
    4069 CH2         -4.9291    18.9747    24.3794 CH2           1 RES     
    4070 CH2         -5.4099    19.5575    25.7213 CH2           1 RES     
    4071 CH2         -6.4932    18.6416    26.3208 CH2           1 RES     
    4072 CH2         -6.9740    19.2244    27.6628 CH2           1 RES     
    4073 CH2         -8.0573    18.3086    28.2622 CH2           1 RES     
    4074 CH2         -8.5381    18.8914    29.6042 CH2           1 RES     
    4075 CH2         -9.6214    17.9755    30.2037 CH2           1 RES     
    4076 CH2        -10.1022    18.5583    31.5456 CH2           1 RES     
    4077 CH2        -11.1855    17.6425    32.1451 CH2           1 RES     
    4078 CH2        -11.6663    18.2253    33.4871 CH2           1 RES     
    4079 CH2        -12.7496    17.3094    34.0866 CH2           1 RES     
    4080 CH2        -13.2304    17.8922    35.4285 CH2           1 RES     
    4081 CH2        -14.3137    16.9764    36.0280 CH2           1 RES     
    4082 CH2        -14.7945    17.5592    37.3699 CH2           1 RES     
    4083 CH3        -15.8285    16.6850    37.9422 CH3           1 RES     
    4084 CH2         -0.5667    22.9024    22.0003 CH2           1 RES     
    4085 OE          -0.9405    23.4128    23.3210 OE            1 RES     
    4086 C           -0.7867    24.8777    23.0373 C             1 RES     
    4087 O           -0.4388    25.3448    21.9539 O             1 RES     
    4088 CH2         -1.3177    25.4790    24.1910 CH2           1 RES     
    4089 CH2         -1.8330    24.5263    25.2857 CH2           1 RES     
    4090 CH2         -2.5481    25.3399    26.3804 CH2           1 RES     
    4091 CH2         -3.0634    24.3872    27.4751 CH2           1 RES     
    4092 CH2         -3.7784    25.2008    28.5698 CH2           1 RES     
    4093 CH2         -4.2937    24.2481    29.6645 CH2           1 RES     
    4094 CH2         -5.0088    25.0617    30.7591 CH2           1 RES     
    4095 CH2         -5.5241    24.1090    31.8538 CH2           1 RES     
    4096 CH2         -6.2391    24.9226    32.9485 CH2           1 RES     
    4097 CH2         -6.7545    23.9698    34.0432 CH2           1 RES     
    4098 CH2         -7.4695    24.7835    35.1379 CH2           1 RES     
    4099 CH2         -7.9848    23.8307    36.2326 CH2           1 RES     
    4100 CH2         -8.6998    24.6443    37.3273 CH2           1 RES     
    4101 CH2         -9.2152    23.6916    38.4220 CH2           1 RES     
    4102 CH2         -9.9302    24.5052    39.5167 CH2           1 RES     
    4103 CH2        -10.4455    23.5525    40.6114 CH2           1 RES     
    4104 CH3        -11.1281    24.3291    41.6563 CH3           1 RES     
    4105 CH3         37.9386     2.5000    14.2386 CH3           1 RES     
    4106 CH3         37.2084     0.2760    14.4706 CH3           1 RES     
    4107 CH3         39.3269     0.7500    14.2054 CH3           1 RES     
    4108 NL          38.1766     1.1699    14.7067 NL            1 RES     
    4109 CH2         38.4551     1.2312    16.0695 CH2           1 RES     
    4110 CH2         37.1022     1.7201    16.6192 CH2           1 RES     
    4111 OA          37.1868     1.8557    18.0956 OA            1 RES     
    4112 P           36.7581     0.4581    18.7458 P             1 RES     
    4113 OM          35.2451     0.1861    18.3018 OM            1 RES     
    4114 OM          37.8081    -0.6335    18.2302 OM            1 RES     
    4115 OA          36.8366     0.5644    20.3403 OA            1 RES     
    4116 CH2         36.4331    -0.7471    20.9081 CH2           1 RES     
    4117 CH1         35.8473    -0.6212    22.1270 CH1           1 RES     
    4118 OE          34.5513    -0.6525    22.8202 OE            1 RES     
    4119 C           33.9630    -1.6265    21.8428 C             1 RES     
    4120 O           34.5639    -2.0917    20.8756 O             1 RES     
    4121 CH2         32.7367    -1.9676    22.4379 CH2           1 RES     
    4122 CH2         32.4124    -1.2852    23.7799 CH2           1 RES     
    4123 CH2         31.1386    -1.9095    24.3794 CH2           1 RES     
    4124 CH2         30.8142    -1.2271    25.7213 CH2           1 RES     
    4125 CH2         29.5404    -1.8513    26.3208 CH2           1 RES     
    4126 CH2         29.2161    -1.1690    27.6628 CH2           1 RES     
    4127 CH2         27.9423    -1.7932    28.2622 CH2           1 RES     
    4128 CH2         27.6180    -1.1108    29.6042 CH2           1 RES     
    4129 CH2         26.3442    -1.7351    30.2037 CH2           1 RES     
    4130 CH2         26.0199    -1.0527    31.5456 CH2           1 RES     
    4131 CH2         24.7461    -1.6769    32.1451 CH2           1 RES     
    4132 CH2         24.4218    -0.9946    33.4871 CH2           1 RES     
    4133 CH2         23.1480    -1.6188    34.0866 CH2           1 RES     
    4134 CH2         22.8237    -0.9364    35.4285 CH2           1 RES     
    4135 CH2         21.5499    -1.5607    36.0280 CH2           1 RES     
    4136 CH2         21.2256    -0.8783    37.3699 CH2           1 RES     
    4137 CH3         20.0097    -1.4741    37.9422 CH3           1 RES     
    4138 CH2         36.3265     0.8368    22.0003 CH2           1 RES     
    4139 OE          36.0884     1.4229    23.3210 OE            1 RES     
    4140 C           36.5945     2.8062    23.0373 C             1 RES     
    4141 O           37.0457     3.1744    21.9539 O             1 RES     
    4142 CH2         36.2260     3.5188    24.1910 CH2           1 RES     
    4143 CH2         35.4941     2.7203    25.2857 CH2           1 RES     
    4144 CH2         34.9989     3.6837    26.3804 CH2           1 RES     
    4145 CH2         34.2669     2.8852    27.4751 CH2           1 RES     
    4146 CH2         33.7717     3.8486    28.5698 CH2           1 RES     
    4147 CH2         33.0398     3.0501    29.6645 CH2           1 RES     
    4148 CH2         32.5445     4.0135    30.7591 CH2           1 RES     
    4149 CH2         31.8126     3.2150    31.8538 CH2           1 RES     
    4150 CH2         31.3174     4.1784    32.9485 CH2           1 RES     
    4151 CH2         30.5854     3.3799    34.0432 CH2           1 RES     
    4152 CH2         30.0902     4.3433    35.1379 CH2           1 RES     
    4153 CH2         29.3583     3.5448    36.2326 CH2           1 RES     
    4154 CH2         28.8630     4.5081    37.3273 CH2           1 RES     
    4155 CH2         28.1311     3.7097    38.4220 CH2           1 RES     
    4156 CH2         27.6359     4.6730    39.5167 CH2           1 RES     
    4157 CH2         26.9039     3.8746    40.6114 CH2           1 RES     
    4158 CH3         26.4312     4.7941    41.6563 CH3           1 RES     
    4159 CH3         37.9386    39.8471    14.2386 CH3           1 RES     
    4160 CH3         36.9315    37.7341    14.4706 CH3           1 RES     
    4161 CH3         39.0931    37.9348    14.2054 CH3           1 RES     
    4162 NL          38.0055    38.4976    14.7067 NL            1 RES     
    4163 CH2         38.2895    38.5229    16.0695 CH2           1 RES     
    4164 CH2         37.0098    39.1799    16.6192 CH2           1 RES     
    4165 OA          37.1110    39.3037    18.0956 OA            1 RES     
    4166 P           36.5079    37.9719    18.7458 P             1 RES     
    4167 OM          34.9727    37.8946    18.3018 OM            1 RES     
    4168 OM          37.4106    36.7557    18.2302 OM            1 RES     
    4169 OA          36.5994    38.0674    20.3403 OA            1 RES     
    4170 CH2         36.0324    36.8179    20.9081 CH2           1 RES     
    4171 CH1         35.4673    37.0173    22.1270 CH1           1 RES     
    4172 OE          34.1779    37.1510    22.8202 OE            1 RES     
    4173 C           33.4705    36.2598    21.8428 C             1 RES     
    4174 O           34.0073    35.7219    20.8756 O             1 RES     
    4175 CH2         32.2107    36.0774    22.4379 CH2           1 RES     
    4176 CH2         31.9758    36.7955    23.7799 CH2           1 RES     
    4177 CH2         30.6330    36.3383    24.3794 CH2           1 RES     
    4178 CH2         30.3981    37.0564    25.7213 CH2           1 RES     
    4179 CH2         29.0552    36.5993    26.3208 CH2           1 RES     
    4180 CH2         28.8203    37.3173    27.6628 CH2           1 RES     
    4181 CH2         27.4775    36.8602    28.2622 CH2           1 RES     
    4182 CH2         27.2426    37.5783    29.6042 CH2           1 RES     
    4183 CH2         25.8997    37.1211    30.2037 CH2           1 RES     
    4184 CH2         25.6648    37.8392    31.5456 CH2           1 RES     
    4185 CH2         24.3220    37.3820    32.1451 CH2           1 RES     
    4186 CH2         24.0871    38.1001    33.4871 CH2           1 RES     
    4187 CH2         22.7443    37.6430    34.0866 CH2           1 RES     
    4188 CH2         22.5094    38.3610    35.4285 CH2           1 RES     
    4189 CH2         21.1665    37.9039    36.0280 CH2           1 RES     
    4190 CH2         20.9316    38.6219    37.3699 CH2           1 RES     
    4191 CH3         19.6498    38.1856    37.9422 CH3           1 RES     
    4192 CH2         36.1281    38.4025    22.0003 CH2           1 RES     
    4193 OE          35.9665    39.0141    23.3210 OE            1 RES     
    4194 C           36.6443    40.3218    23.0373 C             1 RES     
    4195 O           37.1387    40.6296    21.9539 O             1 RES     
    4196 CH2         36.3695    41.0754    24.1910 CH2           1 RES     
    4197 CH2         35.5420    40.3766    25.2857 CH2           1 RES     
    4198 CH2         35.1733    41.3951    26.3804 CH2           1 RES     
    4199 CH2         34.3457    40.6962    27.4751 CH2           1 RES     
    4200 CH2         33.9771    41.7147    28.5698 CH2           1 RES     
    4201 CH2         33.1495    41.0159    29.6645 CH2           1 RES     
    4202 CH2         32.7808    42.0343    30.7591 CH2           1 RES     
    4203 CH2         31.9533    41.3355    31.8538 CH2           1 RES     
    4204 CH2         31.5846    42.3540    32.9485 CH2           1 RES     
    4205 CH2         30.7571    41.6551    34.0432 CH2           1 RES     
    4206 CH2         30.3884    42.6736    35.1379 CH2           1 RES     
    4207 CH2         29.5608    41.9748    36.2326 CH2           1 RES     
    4208 CH2         29.1922    42.9932    37.3273 CH2           1 RES     
    4209 CH2         28.3646    42.2944    38.4220 CH2           1 RES     
    4210 CH2         27.9959    43.3129    39.5167 CH2           1 RES     
    4211 CH2         27.1684    42.6140    40.6114 CH2           1 RES     
    4212 CH3         26.8165    43.5862    41.6563 CH3           1 RES     
    4213 CH3          8.0609    24.9083    14.2386 CH3           1 RES     
    4214 CH3          6.9699    22.8373    14.4706 CH3           1 RES     
    4215 CH3          9.1378    22.9512    14.2054 CH3           1 RES     
    4216 NL           8.0737    23.5571    14.7067 NL            1 RES     
    4217 CH2          8.3585    23.5710    16.0695 CH2           1 RES     
    4218 CH2          7.1061    24.2788    16.6192 CH2           1 RES     
    4219 OA           7.2122    24.3984    18.0956 OA            1 RES     
    4220 P            6.5562    23.0919    18.7458 P             1 RES     
    4221 OM           5.0191    23.0762    18.3018 OM            1 RES     
    4222 OM           7.4095    21.8405    18.2302 OM            1 RES     
    4223 OA           6.6514    23.1836    20.3403 OA            1 RES     
    4224 CH2          6.0348    21.9579    20.9081 CH2           1 RES     
    4225 CH1          5.4781    22.1797    22.1270 CH1           1 RES     
    4226 OE           4.1951    22.3651    22.8202 OE            1 RES     
    4227 C            3.4526    21.5029    21.8428 C             1 RES     
    4228 O            3.9674    20.9439    20.8756 O             1 RES     
    4229 CH2          2.1865    21.3712    22.4379 CH2           1 RES     
    4230 CH2          1.9806    22.0981    23.7799 CH2           1 RES     
    4231 CH2          0.6205    21.6951    24.3794 CH2           1 RES     
    4232 CH2          0.4146    22.4220    25.7213 CH2           1 RES     
    4233 CH2         -0.9455    22.0191    26.3208 CH2           1 RES     
    4234 CH2         -1.1515    22.7460    27.6628 CH2           1 RES     
    4235 CH2         -2.5115    22.3431    28.2622 CH2           1 RES     
    4236 CH2         -2.7175    23.0700    29.6042 CH2           1 RES     
    4237 CH2         -4.0775    22.6670    30.2037 CH2           1 RES     
    4238 CH2         -4.2835    23.3939    31.5456 CH2           1 RES     
    4239 CH2         -5.6436    22.9910    32.1451 CH2           1 RES     
    4240 CH2         -5.8495    23.7179    33.4871 CH2           1 RES     
    4241 CH2         -7.2096    23.3149    34.0866 CH2           1 RES     
    4242 CH2         -7.4155    24.0418    35.4285 CH2           1 RES     
    4243 CH2         -8.7756    23.6389    36.0280 CH2           1 RES     
    4244 CH2         -8.9815    24.3658    37.3699 CH2           1 RES     
    4245 CH3        -10.2798    23.9811    37.9422 CH3           1 RES     
    4246 CH2          6.1940    23.5374    22.0003 CH2           1 RES     
    4247 OE           6.0570    24.1550    23.3210 OE            1 RES     
    4248 C            6.7867    25.4344    23.0373 C             1 RES     
    4249 O            7.2930    25.7222    21.9539 O             1 RES     
    4250 CH2          6.5423    26.1985    24.1910 CH2           1 RES     
    4251 CH2          5.6874    25.5334    25.2857 CH2           1 RES     
    4252 CH2          5.3599    26.5658    26.3804 CH2           1 RES     
    4253 CH2          4.5050    25.9007    27.4751 CH2           1 RES     
    4254 CH2          4.1774    26.9331    28.5698 CH2           1 RES     
    4255 CH2          3.3225    26.2680    29.6645 CH2           1 RES     
    4256 CH2          2.9950    27.3005    30.7591 CH2           1 RES     
    4257 CH2          2.1401    26.6353    31.8538 CH2           1 RES     
    4258 CH2          1.8125    27.6678    32.9485 CH2           1 RES     
    4259 CH2          0.9576    27.0027    34.0432 CH2           1 RES     
    4260 CH2          0.6300    28.0351    35.1379 CH2           1 RES     
    4261 CH2         -0.2249    27.3700    36.2326 CH2           1 RES     
    4262 CH2         -0.5524    28.4025    37.3273 CH2           1 RES     
    4263 CH2         -1.4073    27.7373    38.4220 CH2           1 RES     
    4264 CH2         -1.7349    28.7698    39.5167 CH2           1 RES     
    4265 CH2         -2.5898    28.1046    40.6114 CH2           1 RES     
    4266 CH3         -2.9024    29.0902    41.6563 CH3           1 RES     
    4267 CH3         30.4691    17.4388    14.2386 CH3           1 RES     
    4268 CH3         29.3047    15.4083    14.4706 CH3           1 RES     
    4269 CH3         31.4752    15.4444    14.2054 CH3           1 RES     
    4270 NL          30.4335    16.0881    14.7067 NL            1 RES     
    4271 CH2         30.7186    16.0918    16.0695 CH2           1 RES     
    4272 CH2         29.4924    16.8440    16.6192 CH2           1 RES     
    4273 OA          29.6027    16.9597    18.0956 OA            1 RES     
    4274 P           28.9004    15.6776    18.7458 P             1 RES     
    4275 OM          27.3637    15.7169    18.3018 OM            1 RES     
    4276 OM          29.7082    14.3964    18.2302 OM            1 RES     
    4277 OA          28.9988    15.7658    20.3403 OA            1 RES     
    4278 CH2         28.3386    14.5629    20.9081 CH2           1 RES     
    4279 CH1         27.7903    14.8046    22.1270 CH1           1 RES     
    4280 OE          26.5148    15.0358    22.8202 OE            1 RES     
    4281 C           25.7418    14.2008    21.8428 C             1 RES     
    4282 O           26.2362    13.6237    20.8756 O             1 RES     
    4283 CH2         24.4718    14.1145    22.4379 CH2           1 RES     
    4284 CH2         24.2921    14.8483    23.7799 CH2           1 RES     
    4285 CH2         22.9184    14.4944    24.3794 CH2           1 RES     
    4286 CH2         22.7387    15.2282    25.7213 CH2           1 RES     
    4287 CH2         21.3650    14.8742    26.3208 CH2           1 RES     
    4288 CH2         21.1853    15.6080    27.6628 CH2           1 RES     
    4289 CH2         19.8116    15.2541    28.2622 CH2           1 RES     
    4290 CH2         19.6319    15.9879    29.6042 CH2           1 RES     
    4291 CH2         18.2582    15.6339    30.2037 CH2           1 RES     
    4292 CH2         18.0785    16.3677    31.5456 CH2           1 RES     
    4293 CH2         16.7048    16.0138    32.1451 CH2           1 RES     
    4294 CH2         16.5251    16.7476    33.4871 CH2           1 RES     
    4295 CH2         15.1514    16.3936    34.0866 CH2           1 RES     
    4296 CH2         14.9717    17.1274    35.4285 CH2           1 RES     
    4297 CH2         13.5980    16.7735    36.0280 CH2           1 RES     
    4298 CH2         13.4183    17.5073    37.3699 CH2           1 RES     
    4299 CH3         12.1071    17.1694    37.9422 CH3           1 RES     
    4300 CH2         28.5543    16.1357    22.0003 CH2           1 RES     
    4301 OE          28.4395    16.7578    23.3210 OE            1 RES     
    4302 C           29.2146    18.0103    23.0373 C             1 RES     
    4303 O           29.7310    18.2797    21.9539 O             1 RES     
    4304 CH2         28.9978    18.7827    24.1910 CH2           1 RES     
    4305 CH2         28.1196    18.1486    25.2857 CH2           1 RES     
    4306 CH2         27.8293    19.1921    26.3804 CH2           1 RES     
    4307 CH2         26.9511    18.5580    27.4751 CH2           1 RES     
    4308 CH2         26.6607    19.6016    28.5698 CH2           1 RES     
    4309 CH2         25.7825    18.9675    29.6645 CH2           1 RES     
    4310 CH2         25.4922    20.0110    30.7591 CH2           1 RES     
    4311 CH2         24.6140    19.3769    31.8538 CH2           1 RES     
    4312 CH2         24.3237    20.4205    32.9485 CH2           1 RES     
    4313 CH2         23.4455    19.7864    34.0432 CH2           1 RES     
    4314 CH2         23.1551    20.8299    35.1379 CH2           1 RES     
    4315 CH2         22.2769    20.1959    36.2326 CH2           1 RES     
    4316 CH2         21.9866    21.2394    37.3273 CH2           1 RES     
    4317 CH2         21.1084    20.6053    38.4220 CH2           1 RES     
    4318 CH2         20.8181    21.6488    39.5167 CH2           1 RES     
    4319 CH2         19.9399    21.0148    40.6114 CH2           1 RES     
    4320 CH3         19.6627    22.0109    41.6563 CH3           1 RES     
    4321 CH3         45.4080    17.4388    14.2386 CH3           1 RES     
    4322 CH3         44.0965    15.5000    14.4706 CH3           1 RES     
    4323 CH3         46.2638    15.3755    14.2054 CH3           1 RES     
    4324 NL          45.2726    16.0944    14.7067 NL            1 RES     
    4325 CH2         45.5572    16.0770    16.0695 CH2           1 RES     
    4326 CH2         44.3900    16.9179    16.6192 CH2           1 RES     
    4327 OA          44.5085    17.0251    18.0956 OA            1 RES     
    4328 P           43.7133    15.7984    18.7458 P             1 RES     
    4329 OM          42.1837    15.9514    18.3018 OM            1 RES     
    4330 OM          44.4241    14.4610    18.2302 OM            1 RES     
    4331 OA          43.8180    15.8792    20.3403 OA            1 RES     
    4332 CH2         43.0706    14.7284    20.9081 CH2           1 RES     
    4333 CH1         42.5416    15.0100    22.1270 CH1           1 RES     
    4334 OE          41.2867    15.3349    22.8202 OE            1 RES     
    4335 C           40.4541    14.5593    21.8428 C             1 RES     
    4336 O           40.9045    13.9473    20.8756 O             1 RES     
    4337 CH2         39.1812    14.5672    22.4379 CH2           1 RES     
    4338 CH2         39.0562    15.3123    23.7799 CH2           1 RES     
    4339 CH2         37.6601    15.0610    24.3794 CH2           1 RES     
    4340 CH2         37.5352    15.8061    25.7213 CH2           1 RES     
    4341 CH2         36.1391    15.5547    26.3208 CH2           1 RES     
    4342 CH2         36.0141    16.2998    27.6628 CH2           1 RES     
    4343 CH2         34.6181    16.0484    28.2622 CH2           1 RES     
    4344 CH2         34.4931    16.7935    29.6042 CH2           1 RES     
    4345 CH2         33.0970    16.5421    30.2037 CH2           1 RES     
    4346 CH2         32.9720    17.2872    31.5456 CH2           1 RES     
    4347 CH2         31.5760    17.0358    32.1451 CH2           1 RES     
    4348 CH2         31.4510    17.7809    33.4871 CH2           1 RES     
    4349 CH2         30.0549    17.5295    34.0866 CH2           1 RES     
    4350 CH2         29.9299    18.2746    35.4285 CH2           1 RES     
    4351 CH2         28.5339    18.0233    36.0280 CH2           1 RES     
    4352 CH2         28.4089    18.7684    37.3699 CH2           1 RES     
    4353 CH3         27.0763    18.5284    37.9422 CH3           1 RES     
    4354 CH2         43.4020    16.2809    22.0003 CH2           1 RES     
    4355 OE          43.3336    16.9098    23.3210 OE            1 RES     
    4356 C           44.1992    18.1015    23.0373 C             1 RES     
    4357 O           44.7340    18.3320    21.9539 O             1 RES     
    4358 CH2         44.0401    18.8878    24.1910 CH2           1 RES     
    4359 CH2         43.1174    18.3204    25.2857 CH2           1 RES     
    4360 CH2         42.9050    19.3826    26.3804 CH2           1 RES     
    4361 CH2         41.9824    18.8152    27.4751 CH2           1 RES     
    4362 CH2         41.7700    19.8773    28.5698 CH2           1 RES     
    4363 CH2         40.8473    19.3100    29.6645 CH2           1 RES     
    4364 CH2         40.6349    20.3721    30.7591 CH2           1 RES     
    4365 CH2         39.7123    19.8047    31.8538 CH2           1 RES     
    4366 CH2         39.4999    20.8669    32.9485 CH2           1 RES     
    4367 CH2         38.5772    20.2995    34.0432 CH2           1 RES     
    4368 CH2         38.3649    21.3617    35.1379 CH2           1 RES     
    4369 CH2         37.4422    20.7943    36.2326 CH2           1 RES     
    4370 CH2         37.2298    21.8564    37.3273 CH2           1 RES     
    4371 CH2         36.3071    21.2891    38.4220 CH2           1 RES     
    4372 CH2         36.0948    22.3512    39.5167 CH2           1 RES     
    4373 CH2         35.1721    21.7838    40.6114 CH2           1 RES     
    4374 CH3         34.9694    22.7977    41.6563 CH3           1 RES     
    4375 CH3          8.0609    32.3777    14.2386 CH3           1 RES     
    4376 CH3          7.3570    30.1453    14.4706 CH3           1 RES     
    4377 CH3          9.4697    30.6442    14.2054 CH3           1 RES     
    4378 NL           8.3146    31.0505    14.7067 NL            1 RES     
    4379 CH2          8.5923    31.1150    16.0695 CH2           1 RES     
    4380 CH2          7.2337    31.5880    16.6192 CH2           1 RES     
    4381 OA           7.3168    31.7246    18.0956 OA            1 RES     
    4382 P            6.9045    30.3220    18.7458 P             1 RES     
    4383 OM           5.3949    30.0322    18.3018 OM            1 RES     
    4384 OM           7.9674    29.2429    18.2302 OM            1 RES     
    4385 OA           6.9818    30.4292    20.3403 OA            1 RES     
    4386 CH2          6.5938    29.1131    20.9081 CH2           1 RES     
    4387 CH1          6.0065    29.2321    22.1270 CH1           1 RES     
    4388 OE           4.7110    29.1855    22.8202 OE            1 RES     
    4389 C            4.1343    28.2046    21.8428 C             1 RES     
    4390 O            4.7405    27.7465    20.8756 O             1 RES     
    4391 CH2          2.9120    27.8491    22.4379 CH2           1 RES     
    4392 CH2          2.5797    28.5276    23.7799 CH2           1 RES     
    4393 CH2          1.3133    27.8884    24.3794 CH2           1 RES     
    4394 CH2          0.9810    28.5669    25.7213 CH2           1 RES     
    4395 CH2         -0.2854    27.9277    26.3208 CH2           1 RES     
    4396 CH2         -0.6177    28.6062    27.6628 CH2           1 RES     
    4397 CH2         -1.8841    27.9670    28.2622 CH2           1 RES     
    4398 CH2         -2.2164    28.6455    29.6042 CH2           1 RES     
    4399 CH2         -3.4827    28.0063    30.2037 CH2           1 RES     
    4400 CH2         -3.8151    28.6847    31.5456 CH2           1 RES     
    4401 CH2         -5.0814    28.0456    32.1451 CH2           1 RES     
    4402 CH2         -5.4138    28.7240    33.4871 CH2           1 RES     
    4403 CH2         -6.6801    28.0848    34.0866 CH2           1 RES     
    4404 CH2         -7.0124    28.7633    35.4285 CH2           1 RES     
    4405 CH2         -8.2788    28.1241    36.0280 CH2           1 RES     
    4406 CH2         -8.6111    28.8026    37.3699 CH2           1 RES     
    4407 CH3         -9.8199    28.1925    37.9422 CH3           1 RES     
    4408 CH2          6.4686    30.6956    22.0003 CH2           1 RES     
    4409 OE           6.2235    31.2789    23.3210 OE            1 RES     
    4410 C            6.7133    32.6680    23.0373 C             1 RES     
    4411 O            7.1601    33.0415    21.9539 O             1 RES     
    4412 CH2          6.3364    33.3762    24.1910 CH2           1 RES     
    4413 CH2          5.6140    32.5692    25.2857 CH2           1 RES     
    4414 CH2          5.1074    33.5266    26.3804 CH2           1 RES     
    4415 CH2          4.3849    32.7196    27.4751 CH2           1 RES     
    4416 CH2          3.8784    33.6771    28.5698 CH2           1 RES     
    4417 CH2          3.1559    32.8700    29.6645 CH2           1 RES     
    4418 CH2          2.6494    33.8275    30.7591 CH2           1 RES     
    4419 CH2          1.9269    33.0205    31.8538 CH2           1 RES     
    4420 CH2          1.4204    33.9779    32.9485 CH2           1 RES     
    4421 CH2          0.6979    33.1709    34.0432 CH2           1 RES     
    4422 CH2          0.1913    34.1283    35.1379 CH2           1 RES     
    4423 CH2         -0.5312    33.3213    36.2326 CH2           1 RES     
    4424 CH2         -1.0377    34.2787    37.3273 CH2           1 RES     
    4425 CH2         -1.7602    33.4717    38.4220 CH2           1 RES     
    4426 CH2         -2.2667    34.4291    39.5167 CH2           1 RES     
    4427 CH2         -2.9892    33.6221    40.6114 CH2           1 RES     
    4428 CH3         -3.4727    34.5360    41.6563 CH3           1 RES     
    4429 CH3         30.4691    24.9083    14.2386 CH3           1 RES     
    4430 CH3         29.8974    22.6384    14.4706 CH3           1 RES     
    4431 CH3         31.9773    23.2604    14.2054 CH3           1 RES     
    4432 NL          30.8003    23.5983    14.7067 NL            1 RES     
    4433 CH2         31.0737    23.6790    16.0695 CH2           1 RES     
    4434 CH2         29.6898    24.0714    16.6192 CH2           1 RES     
    4435 OA          29.7646    24.2126    18.0956 OA            1 RES     
    4436 P           29.4354    22.7883    18.7458 P             1 RES     
    4437 OM          27.9453    22.4105    18.3018 OM            1 RES     
    4438 OM          30.5597    21.7734    18.2302 OM            1 RES     
    4439 OA          29.5063    22.8999    20.3403 OA            1 RES     
    4440 CH2         29.1961    21.5632    20.9081 CH2           1 RES     
    4441 CH1         28.6028    21.6476    22.1270 CH1           1 RES     
    4442 OE          27.3123    21.5251    22.8202 OE            1 RES     
    4443 C           26.7941    20.5121    21.8428 C             1 RES     
    4444 O           27.4262    20.0903    20.8756 O             1 RES     
    4445 CH2         25.5948    20.0854    22.4379 CH2           1 RES     
    4446 CH2         25.2232    20.7433    23.7799 CH2           1 RES     
    4447 CH2         23.9965    20.0309    24.3794 CH2           1 RES     
    4448 CH2         23.6250    20.6887    25.7213 CH2           1 RES     
    4449 CH2         22.3983    19.9763    26.3208 CH2           1 RES     
    4450 CH2         22.0267    20.6342    27.6628 CH2           1 RES     
    4451 CH2         20.8001    19.9218    28.2622 CH2           1 RES     
    4452 CH2         20.4285    20.5796    29.6042 CH2           1 RES     
    4453 CH2         19.2018    19.8672    30.2037 CH2           1 RES     
    4454 CH2         18.8303    20.5251    31.5456 CH2           1 RES     
    4455 CH2         17.6036    19.8127    32.1451 CH2           1 RES     
    4456 CH2         17.2320    20.4705    33.4871 CH2           1 RES     
    4457 CH2         16.0054    19.7581    34.0866 CH2           1 RES     
    4458 CH2         15.6338    20.4159    35.4285 CH2           1 RES     
    4459 CH2         14.4071    19.7036    36.0280 CH2           1 RES     
    4460 CH2         14.0356    20.3614    37.3699 CH2           1 RES     
    4461 CH3         12.8646    19.6814    37.9422 CH3           1 RES     
    4462 CH2         28.9783    23.1357    22.0003 CH2           1 RES     
    4463 OE          28.6994    23.7036    23.3210 OE            1 RES     
    4464 C           29.1068    25.1190    23.0373 C             1 RES     
    4465 O           29.5310    25.5181    21.9539 O             1 RES     
    4466 CH2         28.6891    25.8039    24.1910 CH2           1 RES     
    4467 CH2         28.0152    24.9559    25.2857 CH2           1 RES     
    4468 CH2         27.4534    25.8820    26.3804 CH2           1 RES     
    4469 CH2         26.7795    25.0340    27.4751 CH2           1 RES     
    4470 CH2         26.2177    25.9601    28.5698 CH2           1 RES     
    4471 CH2         25.5438    25.1121    29.6645 CH2           1 RES     
    4472 CH2         24.9819    26.0381    30.7591 CH2           1 RES     
    4473 CH2         24.3080    25.1901    31.8538 CH2           1 RES     
    4474 CH2         23.7462    26.1162    32.9485 CH2           1 RES     
    4475 CH2         23.0723    25.2682    34.0432 CH2           1 RES     
    4476 CH2         22.5105    26.1942    35.1379 CH2           1 RES     
    4477 CH2         21.8366    25.3462    36.2326 CH2           1 RES     
    4478 CH2         21.2747    26.2723    37.3273 CH2           1 RES     
    4479 CH2         20.6008    25.4243    38.4220 CH2           1 RES     
    4480 CH2         20.0390    26.3504    39.5167 CH2           1 RES     
    4481 CH2         19.3651    25.5024    40.6114 CH2           1 RES     
    4482 CH3         18.8288    26.3863    41.6563 CH3           1 RES     
    4483 CH3         37.9386     9.9694    14.2386 CH3           1 RES     
    4484 CH3         37.1231     7.7753    14.4706 CH3           1 RES     
    4485 CH3         39.2583     8.1671    14.2054 CH3           1 RES     
    4486 NL          38.1251     8.6311    14.7067 NL            1 RES     
    4487 CH2         38.4057     8.6816    16.0695 CH2           1 RES     
    4488 CH2         37.0727     9.2224    16.6192 CH2           1 RES     
    4489 OA          37.1625     9.3546    18.0956 OA            1 RES     
    4490 P           36.6801     7.9746    18.7458 P             1 RES     
    4491 OM          35.1578     7.7613    18.3018 OM            1 RES     
    4492 OM          37.6873     6.8433    18.2302 OM            1 RES     
    4493 OA          36.7627     8.0778    20.3403 OA            1 RES     
    4494 CH2         36.3089     6.7829    20.9081 CH2           1 RES     
    4495 CH1         35.7283     6.9313    22.1270 CH1           1 RES     
    4496 OE          34.4321     6.9500    22.8202 OE            1 RES     
    4497 C           33.8067     5.9995    21.8428 C             1 RES     
    4498 O           34.3891     5.5114    20.8756 O             1 RES     
    4499 CH2         32.5681     5.7060    22.4379 CH2           1 RES     
    4500 CH2         32.2703     6.4003    23.7799 CH2           1 RES     
    4501 CH2         30.9734     5.8258    24.3794 CH2           1 RES     
    4502 CH2         30.6757     6.5201    25.7213 CH2           1 RES     
    4503 CH2         29.3787     5.9455    26.3208 CH2           1 RES     
    4504 CH2         29.0810     6.6399    27.6628 CH2           1 RES     
    4505 CH2         27.7841     6.0653    28.2622 CH2           1 RES     
    4506 CH2         27.4863     6.7597    29.6042 CH2           1 RES     
    4507 CH2         26.1894     6.1851    30.2037 CH2           1 RES     
    4508 CH2         25.8916     6.8795    31.5456 CH2           1 RES     
    4509 CH2         24.5947     6.3049    32.1451 CH2           1 RES     
    4510 CH2         24.2970     6.9993    33.4871 CH2           1 RES     
    4511 CH2         23.0000     6.4247    34.0866 CH2           1 RES     
    4512 CH2         22.7023     7.1190    35.4285 CH2           1 RES     
    4513 CH2         21.4054     6.5445    36.0280 CH2           1 RES     
    4514 CH2         21.1076     7.2388    37.3699 CH2           1 RES     
    4515 CH3         19.8696     6.6904    37.9422 CH3           1 RES     
    4516 CH2         36.2635     8.3697    22.0003 CH2           1 RES     
    4517 OE          36.0482     8.9646    23.3210 OE            1 RES     
    4518 C           36.6073    10.3273    23.0373 C             1 RES     
    4519 O           37.0724    10.6778    21.9539 O             1 RES     
    4520 CH2         36.2666    11.0536    24.1910 CH2           1 RES     
    4521 CH2         35.5044    10.2840    25.2857 CH2           1 RES     
    4522 CH2         35.0468    11.2657    26.3804 CH2           1 RES     
    4523 CH2         34.2845    10.4961    27.4751 CH2           1 RES     
    4524 CH2         33.8269    11.4778    28.5698 CH2           1 RES     
    4525 CH2         33.0646    10.7083    29.6645 CH2           1 RES     
    4526 CH2         32.6070    11.6900    30.7591 CH2           1 RES     
    4527 CH2         31.8448    10.9204    31.8538 CH2           1 RES     
    4528 CH2         31.3871    11.9021    32.9485 CH2           1 RES     
    4529 CH2         30.6249    11.1325    34.0432 CH2           1 RES     
    4530 CH2         30.1672    12.1143    35.1379 CH2           1 RES     
    4531 CH2         29.4050    11.3447    36.2326 CH2           1 RES     
    4532 CH2         28.9473    12.3264    37.3273 CH2           1 RES     
    4533 CH2         28.1851    11.5568    38.4220 CH2           1 RES     
    4534 CH2         27.7274    12.5386    39.5167 CH2           1 RES     
    4535 CH2         26.9652    11.7690    40.6114 CH2           1 RES     
    4536 CH3         26.5284    12.7061    41.6563 CH3           1 RES     
    4537 CH3         30.4691    47.3165    14.2386 CH3           1 RES     
    4538 CH3         30.4454    44.9759    14.4706 CH3           1 RES     
    4539 CH3         32.3215    46.0681    14.2054 CH3           1 RES     
    4540 NL          31.0981    46.1207    14.7067 NL            1 RES     
    4541 CH2         31.3451    46.2632    16.0695 CH2           1 RES     
    4542 CH2         29.9076    46.3203    16.6192 CH2           1 RES     
    4543 OA          29.9473    46.4751    18.0956 OA            1 RES     
    4544 P           29.9611    45.0133    18.7458 P             1 RES     
    4545 OM          28.6012    44.2968    18.3018 OM            1 RES     
    4546 OM          31.2920    44.2902    18.2302 OM            1 RES     
    4547 OA          30.0039    45.1384    20.3403 OA            1 RES     
    4548 CH2         30.0157    43.7663    20.9081 CH2           1 RES     
    4549 CH1         29.4192    43.7092    22.1270 CH1           1 RES     
    4550 OE          28.1933    43.2876    22.8202 OE            1 RES     
    4551 C           27.9270    42.1814    21.8428 C             1 RES     
    4552 O           28.6403    41.9195    20.8756 O             1 RES     
    4553 CH2         26.8611    41.4855    22.4379 CH2           1 RES     
    4554 CH2         26.3457    42.0379    23.7799 CH2           1 RES     
    4555 CH2         25.3202    41.0578    24.3794 CH2           1 RES     
    4556 CH2         24.8048    41.6102    25.7213 CH2           1 RES     
    4557 CH2         23.7792    40.6302    26.3208 CH2           1 RES     
    4558 CH2         23.2638    41.1826    27.6628 CH2           1 RES     
    4559 CH2         22.2383    40.2025    28.2622 CH2           1 RES     
    4560 CH2         21.7229    40.7549    29.6042 CH2           1 RES     
    4561 CH2         20.6974    39.7748    30.2037 CH2           1 RES     
    4562 CH2         20.1820    40.3272    31.5456 CH2           1 RES     
    4563 CH2         19.1565    39.3471    32.1451 CH2           1 RES     
    4564 CH2         18.6411    39.8995    33.4871 CH2           1 RES     
    4565 CH2         17.6156    38.9195    34.0866 CH2           1 RES     
    4566 CH2         17.1002    39.4719    35.4285 CH2           1 RES     
    4567 CH2         16.0747    38.4918    36.0280 CH2           1 RES     
    4568 CH2         15.5592    39.0442    37.3699 CH2           1 RES     
    4569 CH3         14.5803    38.1087    37.9422 CH3           1 RES     
    4570 CH2         29.4353    45.2439    22.0003 CH2           1 RES     
    4571 OE          29.0311    45.7306    23.3210 OE            1 RES     
    4572 C           29.0954    47.2021    23.0373 C             1 RES     
    4573 O           29.4142    47.6895    21.9539 O             1 RES     
    4574 CH2         28.5288    47.7700    24.1910 CH2           1 RES     
    4575 CH2         28.0724    46.7877    25.2857 CH2           1 RES     
    4576 CH2         27.3092    47.5562    26.3804 CH2           1 RES     
    4577 CH2         26.8528    46.5739    27.4751 CH2           1 RES     
    4578 CH2         26.0896    47.3425    28.5698 CH2           1 RES     
    4579 CH2         25.6332    46.3601    29.6645 CH2           1 RES     
    4580 CH2         24.8700    47.1287    30.7591 CH2           1 RES     
    4581 CH2         24.4136    46.1463    31.8538 CH2           1 RES     
    4582 CH2         23.6504    46.9149    32.9485 CH2           1 RES     
    4583 CH2         23.1940    45.9326    34.0432 CH2           1 RES     
    4584 CH2         22.4308    46.7011    35.1379 CH2           1 RES     
    4585 CH2         21.9744    45.7188    36.2326 CH2           1 RES     
    4586 CH2         21.2112    46.4873    37.3273 CH2           1 RES     
    4587 CH2         20.7548    45.5050    38.4220 CH2           1 RES     
    4588 CH2         19.9916    46.2736    39.5167 CH2           1 RES     
    4589 CH2         19.5352    45.2912    40.6114 CH2           1 RES     
    4590 CH3         18.8067    46.0249    41.6563 CH3           1 RES     
    4591 CH3         52.8774     9.9694    14.2386 CH3           1 RES     
    4592 CH3         52.5532     7.6512    14.4706 CH3           1 RES     
    4593 CH3         54.5541     8.4933    14.2054 CH3           1 RES     
    4594 NL          53.3475     8.7026    14.7067 NL            1 RES     
    4595 CH2         53.6107     8.8123    16.0695 CH2           1 RES     
    4596 CH2         52.1926     9.0536    16.6192 CH2           1 RES     
    4597 OA          52.2518     9.2020    18.0956 OA            1 RES     
    4598 P           52.0777     7.7505    18.7458 P             1 RES     
    4599 OM          50.6370     7.2146    18.3018 OM            1 RES     
    4600 OM          53.3047     6.8625    18.2302 OM            1 RES     
    4601 OA          52.1362     7.8691    20.3403 OA            1 RES     
    4602 CH2         51.9716     6.5069    20.9081 CH2           1 RES     
    4603 CH1         51.3727     6.5269    22.1270 CH1           1 RES     
    4604 OE          50.1028     6.2663    22.8202 OE            1 RES     
    4605 C           49.6966     5.2034    21.8428 C             1 RES     
    4606 O           50.3704     4.8521    20.8756 O             1 RES     
    4607 CH2         48.5501     4.6503    22.4379 CH2           1 RES     
    4608 CH2         48.1099     5.2643    23.7799 CH2           1 RES     
    4609 CH2         46.9670     4.4241    24.3794 CH2           1 RES     
    4610 CH2         46.5269     5.0381    25.7213 CH2           1 RES     
    4611 CH2         45.3839     4.1979    26.3208 CH2           1 RES     
    4612 CH2         44.9438     4.8120    27.6628 CH2           1 RES     
    4613 CH2         43.8008     3.9718    28.2622 CH2           1 RES     
    4614 CH2         43.3607     4.5858    29.6042 CH2           1 RES     
    4615 CH2         42.2177     3.7456    30.2037 CH2           1 RES     
    4616 CH2         41.7776     4.3597    31.5456 CH2           1 RES     
    4617 CH2         40.6346     3.5195    32.1451 CH2           1 RES     
    4618 CH2         40.1945     4.1335    33.4871 CH2           1 RES     
    4619 CH2         39.0515     3.2933    34.0866 CH2           1 RES     
    4620 CH2         38.6114     3.9073    35.4285 CH2           1 RES     
    4621 CH2         37.4685     3.0672    36.0280 CH2           1 RES     
    4622 CH2         37.0283     3.6812    37.3699 CH2           1 RES     
    4623 CH3         35.9373     2.8792    37.9422 CH3           1 RES     
    4624 CH2         51.5858     8.0468    22.0003 CH2           1 RES     
    4625 OE          51.2476     8.5813    23.3210 OE            1 RES     
    4626 C           51.5003    10.0324    23.0373 C             1 RES     
    4627 O           51.8791    10.4748    21.9539 O             1 RES     
    4628 CH2         51.0114    10.6684    24.1910 CH2           1 RES     
    4629 CH2         50.4326     9.7528    25.2857 CH2           1 RES     
    4630 CH2         49.7744    10.6131    26.3804 CH2           1 RES     
    4631 CH2         49.1956     9.6975    27.4751 CH2           1 RES     
    4632 CH2         48.5375    10.5578    28.5698 CH2           1 RES     
    4633 CH2         47.9587     9.6422    29.6645 CH2           1 RES     
    4634 CH2         47.3005    10.5025    30.7591 CH2           1 RES     
    4635 CH2         46.7217     9.5869    31.8538 CH2           1 RES     
    4636 CH2         46.0635    10.4472    32.9485 CH2           1 RES     
    4637 CH2         45.4848     9.5316    34.0432 CH2           1 RES     
    4638 CH2         44.8266    10.3918    35.1379 CH2           1 RES     
    4639 CH2         44.2478     9.4763    36.2326 CH2           1 RES     
    4640 CH2         43.5896    10.3365    37.3273 CH2           1 RES     
    4641 CH2         43.0109     9.4209    38.4220 CH2           1 RES     
    4642 CH2         42.3527    10.2812    39.5167 CH2           1 RES     
    4643 CH2         41.7739     9.3656    40.6114 CH2           1 RES     
    4644 CH3         41.1456    10.1868    41.6563 CH3           1 RES     
    4645 CH3         15.5303    24.9083    14.2386 CH3           1 RES     
    4646 CH3         14.2630    22.9402    14.4706 CH3           1 RES     
    4647 CH3         16.4325    22.8648    14.2054 CH3           1 RES     
    4648 NL          15.4253    23.5611    14.7067 NL            1 RES     
    4649 CH2         15.7102    23.5502    16.0695 CH2           1 RES     
    4650 CH2         14.5243    24.3645    16.6192 CH2           1 RES     
    4651 OA          14.6404    24.4743    18.0956 OA            1 RES     
    4652 P           13.8731    23.2300    18.7458 P             1 RES     
    4653 OM          12.3405    23.3483    18.3018 OM            1 RES     
    4654 OM          14.6140    21.9089    18.2302 OM            1 RES     
    4655 OA          13.9759    23.3130    20.3403 OA            1 RES     
    4656 CH2         13.2548    22.1457    20.9081 CH2           1 RES     
    4657 CH1         12.7196    22.4152    22.1270 CH1           1 RES     
    4658 OE          11.4576    22.7117    22.8202 OE            1 RES     
    4659 C           10.6428    21.9175    21.8428 C             1 RES     
    4660 O           11.1069    21.3158    20.8756 O             1 RES     
    4661 CH2          9.3700    21.8966    22.4379 CH2           1 RES     
    4662 CH2          9.2282    22.6387    23.7799 CH2           1 RES     
    4663 CH2          7.8382    22.3558    24.3794 CH2           1 RES     
    4664 CH2          7.6964    23.0979    25.7213 CH2           1 RES     
    4665 CH2          6.3064    22.8150    26.3208 CH2           1 RES     
    4666 CH2          6.1646    23.5571    27.6628 CH2           1 RES     
    4667 CH2          4.7745    23.2742    28.2622 CH2           1 RES     
    4668 CH2          4.6328    24.0163    29.6042 CH2           1 RES     
    4669 CH2          3.2427    23.7334    30.2037 CH2           1 RES     
    4670 CH2          3.1009    24.4755    31.5456 CH2           1 RES     
    4671 CH2          1.7109    24.1926    32.1451 CH2           1 RES     
    4672 CH2          1.5691    24.9347    33.4871 CH2           1 RES     
    4673 CH2          0.1791    24.6518    34.0866 CH2           1 RES     
    4674 CH2          0.0373    25.3939    35.4285 CH2           1 RES     
    4675 CH2         -1.3527    25.1110    36.0280 CH2           1 RES     
    4676 CH2         -1.4945    25.8531    37.3699 CH2           1 RES     
    4677 CH3         -2.8214    25.5831    37.9422 CH3           1 RES     
    4678 CH2         13.5510    23.7053    22.0003 CH2           1 RES     
    4679 OE          13.4683    24.3325    23.3210 OE            1 RES     
    4680 C           14.3068    25.5435    23.0373 C             1 RES     
    4681 O           14.8363    25.7860    21.9539 O             1 RES     
    4682 CH2         14.1300    26.3259    24.1910 CH2           1 RES     
    4683 CH2         13.2204    25.7378    25.2857 CH2           1 RES     
    4684 CH2         12.9840    26.7949    26.3804 CH2           1 RES     
    4685 CH2         12.0744    26.2068    27.4751 CH2           1 RES     
    4686 CH2         11.8381    27.2639    28.5698 CH2           1 RES     
    4687 CH2         10.9285    26.6758    29.6645 CH2           1 RES     
    4688 CH2         10.6921    27.7329    30.7591 CH2           1 RES     
    4689 CH2          9.7825    27.1448    31.8538 CH2           1 RES     
    4690 CH2          9.5462    28.2019    32.9485 CH2           1 RES     
    4691 CH2          8.6366    27.6138    34.0432 CH2           1 RES     
    4692 CH2          8.4003    28.6708    35.1379 CH2           1 RES     
    4693 CH2          7.4906    28.0827    36.2326 CH2           1 RES     
    4694 CH2          7.2543    29.1398    37.3273 CH2           1 RES     
    4695 CH2          6.3447    28.5517    38.4220 CH2           1 RES     
    4696 CH2          6.1084    29.6088    39.5167 CH2           1 RES     
    4697 CH2          5.1988    29.0207    40.6114 CH2           1 RES     
    4698 CH3          4.9732    30.0297    41.6563 CH3           1 RES     
    4699 CH3         52.8774     2.5000    14.2386 CH3           1 RES     
    4700 CH3         51.6400     0.5131    14.4706 CH3           1 RES     
    4701 CH3         53.8104     0.4703    14.2054 CH3           1 RES     
    4702 NL          52.7928     1.1514    14.7067 NL            1 RES     
    4703 CH2         53.0778     1.1448    16.0695 CH2           1 RES     
    4704 CH2         51.8797     1.9411    16.6192 CH2           1 RES     
    4705 OA          51.9942     2.0527    18.0956 OA            1 RES     
    4706 P           51.2457     0.7969    18.7458 P             1 RES     
    4707 OM          49.7115     0.8921    18.3018 OM            1 RES     
    4708 OM          52.0065    -0.5128    18.2302 OM            1 RES     
    4709 OA          51.3473     0.8815    20.3403 OA            1 RES     
    4710 CH2         50.6438    -0.2966    20.9081 CH2           1 RES     
    4711 CH1         50.1046    -0.0352    22.1270 CH1           1 RES     
    4712 OE          48.8383     0.2422    22.8202 OE            1 RES     
    4713 C           48.0356    -0.5642    21.8428 C             1 RES     
    4714 O           48.5087    -1.1588    20.8756 O             1 RES     
    4715 CH2         46.7633    -0.6043    22.4379 CH2           1 RES     
    4716 CH2         46.6103     0.1356    23.7799 CH2           1 RES     
    4717 CH2         45.2247    -0.1682    24.3794 CH2           1 RES     
    4718 CH2         45.0717     0.5716    25.7213 CH2           1 RES     
    4719 CH2         43.6861     0.2678    26.3208 CH2           1 RES     
    4720 CH2         43.5332     1.0077    27.6628 CH2           1 RES     
    4721 CH2         42.1476     0.7039    28.2622 CH2           1 RES     
    4722 CH2         41.9946     1.4437    29.6042 CH2           1 RES     
    4723 CH2         40.6090     1.1399    30.2037 CH2           1 RES     
    4724 CH2         40.4560     1.8797    31.5456 CH2           1 RES     
    4725 CH2         39.0704     1.5759    32.1451 CH2           1 RES     
    4726 CH2         38.9174     2.3158    33.4871 CH2           1 RES     
    4727 CH2         37.5318     2.0120    34.0866 CH2           1 RES     
    4728 CH2         37.3789     2.7518    35.4285 CH2           1 RES     
    4729 CH2         35.9933     2.4480    36.0280 CH2           1 RES     
    4730 CH2         35.8403     3.1879    37.3699 CH2           1 RES     
    4731 CH3         34.5177     2.8978    37.9422 CH3           1 RES     
    4732 CH2         50.9165     1.2673    22.0003 CH2           1 RES     
    4733 OE          50.8244     1.8932    23.3210 OE            1 RES     
    4734 C           51.6445     3.1166    23.0373 C             1 RES     
    4735 O           52.1703     3.3671    21.9539 O             1 RES     
    4736 CH2         51.4559     3.8964    24.1910 CH2           1 RES     
    4737 CH2         50.5552     3.2946    25.2857 CH2           1 RES     
    4738 CH2         50.3030     4.3480    26.3804 CH2           1 RES     
    4739 CH2         49.4023     3.7463    27.4751 CH2           1 RES     
    4740 CH2         49.1501     4.7996    28.5698 CH2           1 RES     
    4741 CH2         48.2494     4.1979    29.6645 CH2           1 RES     
    4742 CH2         47.9972     5.2513    30.7591 CH2           1 RES     
    4743 CH2         47.0966     4.6495    31.8538 CH2           1 RES     
    4744 CH2         46.8443     5.7029    32.9485 CH2           1 RES     
    4745 CH2         45.9437     5.1012    34.0432 CH2           1 RES     
    4746 CH2         45.6914     6.1546    35.1379 CH2           1 RES     
    4747 CH2         44.7908     5.5528    36.2326 CH2           1 RES     
    4748 CH2         44.5385     6.6062    37.3273 CH2           1 RES     
    4749 CH2         43.6379     6.0044    38.4220 CH2           1 RES     
    4750 CH2         43.3857     7.0578    39.5167 CH2           1 RES     
    4751 CH2         42.4850     6.4561    40.6114 CH2           1 RES     
    4752 CH3         42.2442     7.4616    41.6563 CH3           1 RES     
    4753 CH3         22.9997     9.9694    14.2386 CH3           1 RES     
    4754 CH3         23.3109     7.6494    14.4706 CH3           1 RES     
    4755 CH3         25.0116     8.9986    14.2054 CH3           1 RES     
    4756 NL          23.7932     8.8757    14.7067 NL            1 RES     
    4757 CH2         24.0172     9.0521    16.0695 CH2           1 RES     
    4758 CH2         22.5864     8.9032    16.6192 CH2           1 RES     
    4759 OA          22.6036     9.0621    18.0956 OA            1 RES     
    4760 P           22.8262     7.6172    18.7458 P             1 RES     
    4761 OM          21.5826     6.7136    18.3018 OM            1 RES     
    4762 OM          24.2468     7.0918    18.2302 OM            1 RES     
    4763 OA          22.8506     7.7471    20.3403 OA            1 RES     
    4764 CH2         23.0584     6.3908    20.9081 CH2           1 RES     
    4765 CH1         22.4762     6.2490    22.1270 CH1           1 RES     
    4766 OE          21.3232     5.6565    22.8202 OE            1 RES     
    4767 C           21.2178     4.5236    21.8428 C             1 RES     
    4768 O           21.9613     4.3664    20.8756 O             1 RES     
    4769 CH2         20.2623     3.6825    22.4379 CH2           1 RES     
    4770 CH2         19.6732     4.1555    23.7799 CH2           1 RES     
    4771 CH2         18.7984     3.0389    24.3794 CH2           1 RES     
    4772 CH2         18.2093     3.5120    25.7213 CH2           1 RES     
    4773 CH2         17.3344     2.3953    26.3208 CH2           1 RES     
    4774 CH2         16.7453     2.8684    27.6628 CH2           1 RES     
    4775 CH2         15.8705     1.7518    28.2622 CH2           1 RES     
    4776 CH2         15.2814     2.2248    29.6042 CH2           1 RES     
    4777 CH2         14.4065     1.1082    30.2037 CH2           1 RES     
    4778 CH2         13.8174     1.5813    31.5456 CH2           1 RES     
    4779 CH2         12.9426     0.4646    32.1451 CH2           1 RES     
    4780 CH2         12.3535     0.9377    33.4871 CH2           1 RES     
    4781 CH2         11.4786    -0.1789    34.0866 CH2           1 RES     
    4782 CH2         10.8895     0.2941    35.4285 CH2           1 RES     
    4783 CH2         10.0146    -0.8225    36.0280 CH2           1 RES     
    4784 CH2          9.4256    -0.3494    37.3699 CH2           1 RES     
    4785 CH3          8.5905    -1.4153    37.9422 CH3           1 RES     
    4786 CH2         22.2728     7.7703    22.0003 CH2           1 RES     
    4787 OE          21.8032     8.1942    23.3210 OE            1 RES     
    4788 C           21.6564     9.6598    23.0373 C             1 RES     
    4789 O           21.9023    10.1877    21.9539 O             1 RES     
    4790 CH2         21.0144    10.1408    24.1910 CH2           1 RES     
    4791 CH2         20.7032     9.1033    25.2857 CH2           1 RES     
    4792 CH2         19.8379     9.7549    26.3804 CH2           1 RES     
    4793 CH2         19.5267     8.7174    27.4751 CH2           1 RES     
    4794 CH2         18.6614     9.3690    28.5698 CH2           1 RES     
    4795 CH2         18.3502     8.3315    29.6645 CH2           1 RES     
    4796 CH2         17.4849     8.9830    30.7591 CH2           1 RES     
    4797 CH2         17.1737     7.9455    31.8538 CH2           1 RES     
    4798 CH2         16.3084     8.5971    32.9485 CH2           1 RES     
    4799 CH2         15.9972     7.5596    34.0432 CH2           1 RES     
    4800 CH2         15.1319     8.2112    35.1379 CH2           1 RES     
    4801 CH2         14.8207     7.1737    36.2326 CH2           1 RES     
    4802 CH2         13.9554     7.8252    37.3273 CH2           1 RES     
    4803 CH2         13.6441     6.7877    38.4220 CH2           1 RES     
    4804 CH2         12.7789     7.4393    39.5167 CH2           1 RES     
    4805 CH2         12.4676     6.4018    40.6114 CH2           1 RES     
    4806 CH3         11.6417     7.0238    41.6563 CH3           1 RES     
    4807 CH3         45.4080    39.8471    14.2386 CH3           1 RES     
    4808 CH3         45.4793    37.5074    14.4706 CH3           1 RES     
    4809 CH3         47.3095    38.6749    14.2054 CH3           1 RES     
    4810 NL          46.0850    38.6777    14.7067 NL            1 RES     
    4811 CH2         46.3259    38.8302    16.0695 CH2           1 RES     
    4812 CH2         44.8874    38.8289    16.6192 CH2           1 RES     
    4813 OA          44.9208    38.9852    18.0956 OA            1 RES     
    4814 P           44.9938    37.5252    18.7458 P             1 RES     
    4815 OM          43.6641    36.7540    18.3018 OM            1 RES     
    4816 OM          46.3530    36.8567    18.2302 OM            1 RES     
    4817 OA          45.0315    37.6519    20.3403 OA            1 RES     
    4818 CH2         45.0989    36.2814    20.9081 CH2           1 RES     
    4819 CH1         44.5053    36.2001    22.1270 CH1           1 RES     
    4820 OE          43.2975    35.7292    22.8202 OE            1 RES     
    4821 C           43.0763    34.6130    21.8428 C             1 RES     
    4822 O           43.7997    34.3803    20.8756 O             1 RES     
    4823 CH2         42.0395    33.8745    22.4379 CH2           1 RES     
    4824 CH2         41.5021    34.4055    23.7799 CH2           1 RES     
    4825 CH2         40.5172    33.3846    24.3794 CH2           1 RES     
    4826 CH2         39.9798    33.9157    25.7213 CH2           1 RES     
    4827 CH2         38.9949    32.8948    26.3208 CH2           1 RES     
    4828 CH2         38.4575    33.4258    27.6628 CH2           1 RES     
    4829 CH2         37.4726    32.4049    28.2622 CH2           1 RES     
    4830 CH2         36.9352    32.9360    29.6042 CH2           1 RES     
    4831 CH2         35.9503    31.9151    30.2037 CH2           1 RES     
    4832 CH2         35.4129    32.4461    31.5456 CH2           1 RES     
    4833 CH2         34.4280    31.4253    32.1451 CH2           1 RES     
    4834 CH2         33.8906    31.9563    33.4871 CH2           1 RES     
    4835 CH2         32.9057    30.9354    34.0866 CH2           1 RES     
    4836 CH2         32.3683    31.4664    35.4285 CH2           1 RES     
    4837 CH2         31.3834    30.4456    36.0280 CH2           1 RES     
    4838 CH2         30.8460    30.9766    37.3699 CH2           1 RES     
    4839 CH3         29.9059    30.0021    37.9422 CH3           1 RES     
    4840 CH2         44.4591    37.7342    22.0003 CH2           1 RES     
    4841 OE          44.0355    38.2041    23.3210 OE            1 RES     
    4842 C           44.0400    39.6770    23.0373 C             1 RES     
    4843 O           44.3388    40.1769    21.9539 O             1 RES     
    4844 CH2         43.4508    40.2215    24.1910 CH2           1 RES     
    4845 CH2         43.0347    39.2214    25.2857 CH2           1 RES     
    4846 CH2         42.2409    39.9584    26.3804 CH2           1 RES     
    4847 CH2         41.8248    38.9583    27.4751 CH2           1 RES     
    4848 CH2         41.0310    39.6953    28.5698 CH2           1 RES     
    4849 CH2         40.6149    38.6952    29.6645 CH2           1 RES     
    4850 CH2         39.8210    39.4322    30.7591 CH2           1 RES     
    4851 CH2         39.4049    38.4322    31.8538 CH2           1 RES     
    4852 CH2         38.6111    39.1691    32.9485 CH2           1 RES     
    4853 CH2         38.1950    38.1691    34.0432 CH2           1 RES     
    4854 CH2         37.4012    38.9060    35.1379 CH2           1 RES     
    4855 CH2         36.9851    37.9060    36.2326 CH2           1 RES     
    4856 CH2         36.1913    38.6429    37.3273 CH2           1 RES     
    4857 CH2         35.7752    37.6429    38.4220 CH2           1 RES     
    4858 CH2         34.9814    38.3799    39.5167 CH2           1 RES     
    4859 CH2         34.5653    37.3798    40.6114 CH2           1 RES     
    4860 CH3         33.8075    38.0833    41.6563 CH3           1 RES     
    4861 CH3         45.4080    32.3777    14.2386 CH3           1 RES     
    4862 CH3         45.1131    30.0556    14.4706 CH3           1 RES     
    4863 CH3         47.1031    30.9229    14.2054 CH3           1 RES     
    4864 NL          45.8941    31.1169    14.7067 NL            1 RES     
    4865 CH2         46.1559    31.2299    16.0695 CH2           1 RES     
    4866 CH2         44.7348    31.4533    16.6192 CH2           1 RES     
    4867 OA          44.7921    31.6025    18.0956 OA            1 RES     
    4868 P           44.6363    30.1489    18.7458 P             1 RES     
    4869 OM          43.2025    29.5948    18.3018 OM            1 RES     
    4870 OM          45.8744    29.2764    18.2302 OM            1 RES     
    4871 OA          44.6933    30.2682    20.3403 OA            1 RES     
    4872 CH2         44.5459    28.9040    20.9081 CH2           1 RES     
    4873 CH1         43.9468    28.9164    22.1270 CH1           1 RES     
    4874 OE          42.6804    28.6398    22.8202 OE            1 RES     
    4875 C           42.2876    27.5719    21.8428 C             1 RES     
    4876 O           42.9658    27.2291    20.8756 O             1 RES     
    4877 CH2         41.1482    27.0043    22.4379 CH2           1 RES     
    4878 CH2         40.7003    27.6127    23.7799 CH2           1 RES     
    4879 CH2         39.5681    26.7582    24.3794 CH2           1 RES     
    4880 CH2         39.1202    27.3666    25.7213 CH2           1 RES     
    4881 CH2         37.9880    26.5121    26.3208 CH2           1 RES     
    4882 CH2         37.5401    27.1205    27.6628 CH2           1 RES     
    4883 CH2         36.4079    26.2659    28.2622 CH2           1 RES     
    4884 CH2         35.9600    26.8744    29.6042 CH2           1 RES     
    4885 CH2         34.8277    26.0198    30.2037 CH2           1 RES     
    4886 CH2         34.3799    26.6282    31.5456 CH2           1 RES     
    4887 CH2         33.2476    25.7737    32.1451 CH2           1 RES     
    4888 CH2         32.7997    26.3821    33.4871 CH2           1 RES     
    4889 CH2         31.6675    25.5276    34.0866 CH2           1 RES     
    4890 CH2         31.2196    26.1360    35.4285 CH2           1 RES     
    4891 CH2         30.0874    25.2814    36.0280 CH2           1 RES     
    4892 CH2         29.6395    25.8899    37.3699 CH2           1 RES     
    4893 CH3         28.5587    25.0742    37.9422 CH3           1 RES     
    4894 CH2         44.1408    30.4389    22.0003 CH2           1 RES     
    4895 OE          43.7958    30.9692    23.3210 OE            1 RES     
    4896 C           44.0302    32.4233    23.0373 C             1 RES     
    4897 O           44.4034    32.8704    21.9539 O             1 RES     
    4898 CH2         43.5333    33.0531    24.1910 CH2           1 RES     
    4899 CH2         42.9661    32.1303    25.2857 CH2           1 RES     
    4900 CH2         42.2971    32.9821    26.3804 CH2           1 RES     
    4901 CH2         41.7299    32.0593    27.4751 CH2           1 RES     
    4902 CH2         41.0610    32.9112    28.5698 CH2           1 RES     
    4903 CH2         40.4938    31.9884    29.6645 CH2           1 RES     
    4904 CH2         39.8248    32.8403    30.7591 CH2           1 RES     
    4905 CH2         39.2576    31.9175    31.8538 CH2           1 RES     
    4906 CH2         38.5886    32.7694    32.9485 CH2           1 RES     
    4907 CH2         38.0215    31.8466    34.0432 CH2           1 RES     
    4908 CH2         37.3525    32.6984    35.1379 CH2           1 RES     
    4909 CH2         36.7853    31.7756    36.2326 CH2           1 RES     
    4910 CH2         36.1163    32.6275    37.3273 CH2           1 RES     
    4911 CH2         35.5491    31.7047    38.4220 CH2           1 RES     
    4912 CH2         34.8801    32.5566    39.5167 CH2           1 RES     
    4913 CH2         34.3130    31.6338    40.6114 CH2           1 RES     
    4914 CH3         33.6744    32.4469    41.6563 CH3           1 RES     
    4915 CH3         45.4080    47.3165    14.2386 CH3           1 RES     
    4916 CH3         45.4237    44.9758    14.4706 CH3           1 RES     
    4917 CH3         47.2811    46.0994    14.2054 CH3           1 RES     
    4918 NL          46.0570    46.1314    14.7067 NL            1 RES     
    4919 CH2         46.3015    46.2781    16.0695 CH2           1 RES     
    4920 CH2         44.8633    46.3110    16.6192 CH2           1 RES     
    4921 OA          44.9004    46.4665    18.0956 OA            1 RES     
    4922 P           44.9388    45.0051    18.7458 P             1 RES     
    4923 OM          43.5911    44.2658    18.3018 OM            1 RES     
    4924 OM          46.2816    44.3045    18.2302 OM            1 RES     
    4925 OA          44.9794    45.1309    20.3403 OA            1 RES     
    4926 CH2         45.0143    43.7592    20.9081 CH2           1 RES     
    4927 CH1         44.4188    43.6921    22.1270 CH1           1 RES     
    4928 OE          43.2003    43.2499    22.8202 OE            1 RES     
    4929 C           42.9526    42.1393    21.8428 C             1 RES     
    4930 O           43.6702    41.8895    20.8756 O             1 RES     
    4931 CH2         41.8985    41.4256    22.4379 CH2           1 RES     
    4932 CH2         41.3739    41.9693    23.7799 CH2           1 RES     
    4933 CH2         40.3650    40.9721    24.3794 CH2           1 RES     
    4934 CH2         39.8404    41.5158    25.7213 CH2           1 RES     
    4935 CH2         38.8315    40.5186    26.3208 CH2           1 RES     
    4936 CH2         38.3069    41.0622    27.6628 CH2           1 RES     
    4937 CH2         37.2980    40.0650    28.2622 CH2           1 RES     
    4938 CH2         36.7734    40.6087    29.6042 CH2           1 RES     
    4939 CH2         35.7645    39.6115    30.2037 CH2           1 RES     
    4940 CH2         35.2399    40.1552    31.5456 CH2           1 RES     
    4941 CH2         34.2310    39.1580    32.1451 CH2           1 RES     
    4942 CH2         33.7064    39.7016    33.4871 CH2           1 RES     
    4943 CH2         32.6975    38.7045    34.0866 CH2           1 RES     
    4944 CH2         32.1729    39.2481    35.4285 CH2           1 RES     
    4945 CH2         31.1640    38.2509    36.0280 CH2           1 RES     
    4946 CH2         30.6394    38.7946    37.3699 CH2           1 RES     
    4947 CH3         29.6763    37.8427    37.9422 CH3           1 RES     
    4948 CH2         44.4092    45.2268    22.0003 CH2           1 RES     
    4949 OE          43.9969    45.7066    23.3210 OE            1 RES     
    4950 C           44.0363    47.1790    23.0373 C             1 RES     
    4951 O           44.3469    47.6717    21.9539 O             1 RES     
    4952 CH2         43.4603    47.7373    24.1910 CH2           1 RES     
    4953 CH2         43.0205    46.7474    25.2857 CH2           1 RES     
    4954 CH2         42.2444    47.5030    26.3804 CH2           1 RES     
    4955 CH2         41.8047    46.5132    27.4751 CH2           1 RES     
    4956 CH2         41.0286    47.2688    28.5698 CH2           1 RES     
    4957 CH2         40.5888    46.2789    29.6645 CH2           1 RES     
    4958 CH2         39.8128    47.0345    30.7591 CH2           1 RES     
    4959 CH2         39.3730    46.0446    31.8538 CH2           1 RES     
    4960 CH2         38.5969    46.8003    32.9485 CH2           1 RES     
    4961 CH2         38.1572    45.8104    34.0432 CH2           1 RES     
    4962 CH2         37.3811    46.5660    35.1379 CH2           1 RES     
    4963 CH2         36.9413    45.5761    36.2326 CH2           1 RES     
    4964 CH2         36.1653    46.3317    37.3273 CH2           1 RES     
    4965 CH2         35.7255    45.3419    38.4220 CH2           1 RES     
    4966 CH2         34.9494    46.0975    39.5167 CH2           1 RES     
    4967 CH2         34.5097    45.1076    40.6114 CH2           1 RES     
    4968 CH3         33.7689    45.8289    41.6563 CH3           1 RES     
    4969 CH3         22.9997    54.7860    14.2386 CH3           1 RES     
    4970 CH3         22.6724    52.4682    14.4706 CH3           1 RES     
    4971 CH3         24.6744    53.3076    14.2054 CH3           1 RES     
    4972 NL          23.4681    53.5185    14.7067 NL            1 RES     
    4973 CH2         23.7315    53.6278    16.0695 CH2           1 RES     
    4974 CH2         22.3136    53.8711    16.6192 CH2           1 RES     
    4975 OA          22.3731    54.0194    18.0956 OA            1 RES     
    4976 P           22.1970    52.5682    18.7458 P             1 RES     
    4977 OM          20.7555    52.0342    18.3018 OM            1 RES     
    4978 OM          23.4227    51.6784    18.2302 OM            1 RES     
    4979 OA          22.2556    52.6867    20.3403 OA            1 RES     
    4980 CH2         22.0892    51.3246    20.9081 CH2           1 RES     
    4981 CH1         21.4903    51.3455    22.1270 CH1           1 RES     
    4982 OE          20.2201    51.0866    22.8202 OE            1 RES     
    4983 C           19.8124    50.0243    21.8428 C             1 RES     
    4984 O           20.4857    49.6720    20.8756 O             1 RES     
    4985 CH2         18.6652    49.4727    22.4379 CH2           1 RES     
    4986 CH2         18.2259    50.0873    23.7799 CH2           1 RES     
    4987 CH2         17.0818    49.2487    24.3794 CH2           1 RES     
    4988 CH2         16.6425    49.8633    25.7213 CH2           1 RES     
    4989 CH2         15.4984    49.0247    26.3208 CH2           1 RES     
    4990 CH2         15.0591    49.6393    27.6628 CH2           1 RES     
    4991 CH2         13.9150    48.8007    28.2622 CH2           1 RES     
    4992 CH2         13.4757    49.4153    29.6042 CH2           1 RES     
    4993 CH2         12.3316    48.5766    30.2037 CH2           1 RES     
    4994 CH2         11.8923    49.1913    31.5456 CH2           1 RES     
    4995 CH2         10.7482    48.3526    32.1451 CH2           1 RES     
    4996 CH2         10.3089    48.9673    33.4871 CH2           1 RES     
    4997 CH2          9.1648    48.1286    34.0866 CH2           1 RES     
    4998 CH2          8.7255    48.7433    35.4285 CH2           1 RES     
    4999 CH2          7.5814    47.9046    36.0280 CH2           1 RES     
    5000 CH2          7.1421    48.5193    37.3699 CH2           1 RES     
    5001 CH3          6.0500    47.7187    37.9422 CH3           1 RES     
    5002 CH2         21.7055    52.8651    22.0003 CH2           1 RES     
    5003 OE          21.3680    53.4001    23.3210 OE            1 RES     
    5004 C           21.6227    54.8508    23.0373 C             1 RES     
    5005 O           22.0021    55.2927    21.9539 O             1 RES     
    5006 CH2         21.1346    55.4875    24.1910 CH2           1 RES     
    5007 CH2         20.5546    54.5727    25.2857 CH2           1 RES     
    5008 CH2         19.8976    55.4339    26.3804 CH2           1 RES     
    5009 CH2         19.3176    54.5191    27.4751 CH2           1 RES     
    5010 CH2         18.6606    55.3802    28.5698 CH2           1 RES     
    5011 CH2         18.0806    54.4654    29.6645 CH2           1 RES     
    5012 CH2         17.4235    55.3266    30.7591 CH2           1 RES     
    5013 CH2         16.8435    54.4118    31.8538 CH2           1 RES     
    5014 CH2         16.1865    55.2729    32.9485 CH2           1 RES     
    5015 CH2         15.6065    54.3582    34.0432 CH2           1 RES     
    5016 CH2         14.9495    55.2193    35.1379 CH2           1 RES     
    5017 CH2         14.3695    54.3045    36.2326 CH2           1 RES     
    5018 CH2         13.7124    55.1657    37.3273 CH2           1 RES     
    5019 CH2         13.1324    54.2509    38.4220 CH2           1 RES     
    5020 CH2         12.4754    55.1120    39.5167 CH2           1 RES     
    5021 CH2         11.8954    54.1972    40.6114 CH2           1 RES     
    5022 CH3         11.2682    55.0193    41.6563 CH3           1 RES     
    5023 CH3         45.4080    54.7860    14.2386 CH3           1 RES     
    5024 CH3         45.1444    52.4601    14.4706 CH3           1 RES     
    5025 CH3         47.1226    53.3542    14.2054 CH3           1 RES     
    5026 NL          45.9110    53.5319    14.7067 NL            1 RES     
    5027 CH2         46.1713    53.6484    16.0695 CH2           1 RES     
    5028 CH2         44.7473    53.8526    16.6192 CH2           1 RES     
    5029 OA          44.8027    54.0025    18.0956 OA            1 RES     
    5030 P           44.6665    52.5470    18.7458 P             1 RES     
    5031 OM          43.2402    51.9736    18.3018 OM            1 RES     
    5032 OM          45.9162    51.6912    18.2302 OM            1 RES     
    5033 OA          44.7218    52.6670    20.3403 OA            1 RES     
    5034 CH2         44.5929    51.3009    20.9081 CH2           1 RES     
    5035 CH1         43.9937    51.3053    22.1270 CH1           1 RES     
    5036 OE          42.7311    51.0116    22.8202 OE            1 RES     
    5037 C           42.3527    49.9385    21.8428 C             1 RES     
    5038 O           43.0355    49.6049    20.8756 O             1 RES     
    5039 CH2         41.2211    49.3556    22.4379 CH2           1 RES     
    5040 CH2         40.7650    49.9579    23.7799 CH2           1 RES     
    5041 CH2         39.6444    49.0882    24.3794 CH2           1 RES     
    5042 CH2         39.1884    49.6905    25.7213 CH2           1 RES     
    5043 CH2         38.0678    48.8208    26.3208 CH2           1 RES     
    5044 CH2         37.6117    49.4231    27.6628 CH2           1 RES     
    5045 CH2         36.4911    48.5533    28.2622 CH2           1 RES     
    5046 CH2         36.0351    49.1557    29.6042 CH2           1 RES     
    5047 CH2         34.9145    48.2859    30.2037 CH2           1 RES     
    5048 CH2         34.4584    48.8882    31.5456 CH2           1 RES     
    5049 CH2         33.3378    48.0185    32.1451 CH2           1 RES     
    5050 CH2         32.8818    48.6208    33.4871 CH2           1 RES     
    5051 CH2         31.7612    47.7511    34.0866 CH2           1 RES     
    5052 CH2         31.3051    48.3534    35.4285 CH2           1 RES     
    5053 CH2         30.1845    47.4836    36.0280 CH2           1 RES     
    5054 CH2         29.7285    48.0860    37.3699 CH2           1 RES     
    5055 CH3         28.6588    47.2557    37.9422 CH3           1 RES     
    5056 CH2         44.1671    52.8303    22.0003 CH2           1 RES     
    5057 OE          43.8150    53.3558    23.3210 OE            1 RES     
    5058 C           44.0297    54.8130    23.0373 C             1 RES     
    5059 O           44.3969    55.2651    21.9539 O             1 RES     
    5060 CH2         43.5243    55.4360    24.1910 CH2           1 RES     
    5061 CH2         42.9697    54.5056    25.2857 CH2           1 RES     
    5062 CH2         42.2892    55.3484    26.3804 CH2           1 RES     
    5063 CH2         41.7346    54.4180    27.4751 CH2           1 RES     
    5064 CH2         41.0542    55.2608    28.5698 CH2           1 RES     
    5065 CH2         40.4995    54.3304    29.6645 CH2           1 RES     
    5066 CH2         39.8191    55.1732    30.7591 CH2           1 RES     
    5067 CH2         39.2644    54.2428    31.8538 CH2           1 RES     
    5068 CH2         38.5840    55.0856    32.9485 CH2           1 RES     
    5069 CH2         38.0293    54.1552    34.0432 CH2           1 RES     
    5070 CH2         37.3489    54.9980    35.1379 CH2           1 RES     
    5071 CH2         36.7942    54.0676    36.2326 CH2           1 RES     
    5072 CH2         36.1138    54.9104    37.3273 CH2           1 RES     
    5073 CH2         35.5591    53.9800    38.4220 CH2           1 RES     
    5074 CH2         34.8787    54.8228    39.5167 CH2           1 RES     
    5075 CH2         34.3240    53.8924    40.6114 CH2           1 RES     
    5076 CH3         33.6745    54.6969    41.6563 CH3           1 RES     
    5077 CH3         37.9386    47.3165    14.2386 CH3           1 RES     
    5078 CH3         37.5190    45.0137    14.4706 CH3           1 RES     
    5079 CH3         39.5529    45.7726    14.2054 CH3           1 RES     
    5080 NL          38.3560    46.0314    14.7067 NL            1 RES     
    5081 CH2         38.6235    46.1301    16.0695 CH2           1 RES     
    5082 CH2         37.2165    46.4297    16.6192 CH2           1 RES     
    5083 OA          37.2819    46.5756    18.0956 OA            1 RES     
    5084 P           37.0480    45.1325    18.7458 P             1 RES     
    5085 OM          35.5864    44.6565    18.3018 OM            1 RES     
    5086 OM          38.2373    44.1946    18.2302 OM            1 RES     
    5087 OA          37.1113    45.2486    20.3403 OA            1 RES     
    5088 CH2         36.8907    43.8943    20.9081 CH2           1 RES     
    5089 CH1         36.2931    43.9390    22.1270 CH1           1 RES     
    5090 OE          35.0136    43.7310    22.8202 OE            1 RES     
    5091 C           34.5638    42.6858    21.8428 C             1 RES     
    5092 O           35.2226    42.3070    20.8756 O             1 RES     
    5093 CH2         33.3955    42.1804    22.4379 CH2           1 RES     
    5094 CH2         32.9811    42.8121    23.7799 CH2           1 RES     
    5095 CH2         31.8045    42.0197    24.3794 CH2           1 RES     
    5096 CH2         31.3900    42.6514    25.7213 CH2           1 RES     
    5097 CH2         30.2134    41.8591    26.3208 CH2           1 RES     
    5098 CH2         29.7989    42.4908    27.6628 CH2           1 RES     
    5099 CH2         28.6223    41.6984    28.2622 CH2           1 RES     
    5100 CH2         28.2078    42.3301    29.6042 CH2           1 RES     
    5101 CH2         27.0312    41.5378    30.2037 CH2           1 RES     
    5102 CH2         26.6168    42.1694    31.5456 CH2           1 RES     
    5103 CH2         25.4401    41.3771    32.1451 CH2           1 RES     
    5104 CH2         25.0257    42.0088    33.4871 CH2           1 RES     
    5105 CH2         23.8491    41.2164    34.0866 CH2           1 RES     
    5106 CH2         23.4346    41.8481    35.4285 CH2           1 RES     
    5107 CH2         22.2580    41.0558    36.0280 CH2           1 RES     
    5108 CH2         21.8435    41.6875    37.3699 CH2           1 RES     
    5109 CH3         20.7204    40.9311    37.9422 CH3           1 RES     
    5110 CH2         36.5688    45.4488    22.0003 CH2           1 RES     
    5111 OE          36.2529    45.9969    23.3210 OE            1 RES     
    5112 C           36.5653    47.4363    23.0373 C             1 RES     
    5113 O           36.9620    47.8627    21.9539 O             1 RES     
    5114 CH2         36.1030    48.0919    24.1910 CH2           1 RES     
    5115 CH2         35.4869    47.2010    25.2857 CH2           1 RES     
    5116 CH2         34.8648    48.0877    26.3804 CH2           1 RES     
    5117 CH2         34.2487    47.1968    27.4751 CH2           1 RES     
    5118 CH2         33.6266    48.0834    28.5698 CH2           1 RES     
    5119 CH2         33.0105    47.1925    29.6645 CH2           1 RES     
    5120 CH2         32.3884    48.0792    30.7591 CH2           1 RES     
    5121 CH2         31.7723    47.1883    31.8538 CH2           1 RES     
    5122 CH2         31.1502    48.0749    32.9485 CH2           1 RES     
    5123 CH2         30.5342    47.1840    34.0432 CH2           1 RES     
    5124 CH2         29.9120    48.0707    35.1379 CH2           1 RES     
    5125 CH2         29.2960    47.1798    36.2326 CH2           1 RES     
    5126 CH2         28.6738    48.0665    37.3273 CH2           1 RES     
    5127 CH2         28.0578    47.1755    38.4220 CH2           1 RES     
    5128 CH2         27.4356    48.0622    39.5167 CH2           1 RES     
    5129 CH2         26.8196    47.1713    40.6114 CH2           1 RES     
    5130 CH3         26.2257    48.0177    41.6563 CH3           1 RES     
    5131 CH3          8.0609    47.3165    14.2386 CH3           1 RES     
    5132 CH3          6.8923    45.2883    14.4706 CH3           1 RES     
    5133 CH3          9.0629    45.3201    14.2054 CH3           1 RES     
    5134 NL           8.0225    45.9659    14.7067 NL            1 RES     
    5135 CH2          8.3076    45.9690    16.0695 CH2           1 RES     
    5136 CH2          7.0830    46.7237    16.6192 CH2           1 RES     
    5137 OA           7.1935    46.8392    18.0956 OA            1 RES     
    5138 P            6.4886    45.5584    18.7458 P             1 RES     
    5139 OM           4.9520    45.6009    18.3018 OM            1 RES     
    5140 OM           7.2938    44.2756    18.2302 OM            1 RES     
    5141 OA           6.5872    45.6465    20.3403 OA            1 RES     
    5142 CH2          5.9245    44.4449    20.9081 CH2           1 RES     
    5143 CH1          5.3767    44.6877    22.1270 CH1           1 RES     
    5144 OE           4.1016    44.9215    22.8202 OE            1 RES     
    5145 C            3.3270    44.0880    21.8428 C             1 RES     
    5146 O            3.8203    43.5100    20.8756 O             1 RES     
    5147 CH2          2.0568    44.0043    22.4379 CH2           1 RES     
    5148 CH2          1.8786    44.7385    23.7799 CH2           1 RES     
    5149 CH2          0.5042    44.3873    24.3794 CH2           1 RES     
    5150 CH2          0.3259    45.1215    25.7213 CH2           1 RES     
    5151 CH2         -1.0484    44.7703    26.3208 CH2           1 RES     
    5152 CH2         -1.2267    45.5045    27.6628 CH2           1 RES     
    5153 CH2         -2.6011    45.1533    28.2622 CH2           1 RES     
    5154 CH2         -2.7793    45.8875    29.6042 CH2           1 RES     
    5155 CH2         -4.1537    45.5363    30.2037 CH2           1 RES     
    5156 CH2         -4.3319    46.2705    31.5456 CH2           1 RES     
    5157 CH2         -5.7063    45.9193    32.1451 CH2           1 RES     
    5158 CH2         -5.8846    46.6535    33.4871 CH2           1 RES     
    5159 CH2         -7.2589    46.3023    34.0866 CH2           1 RES     
    5160 CH2         -7.4372    47.0365    35.4285 CH2           1 RES     
    5161 CH2         -8.8116    46.6853    36.0280 CH2           1 RES     
    5162 CH2         -8.9898    47.4195    37.3699 CH2           1 RES     
    5163 CH3        -10.3017    47.0843    37.9422 CH3           1 RES     
    5164 CH2          6.1434    46.0173    22.0003 CH2           1 RES     
    5165 OE           6.0299    46.6396    23.3210 OE            1 RES     
    5166 C            6.8075    47.8905    23.0373 C             1 RES     
    5167 O            7.3244    48.1589    21.9539 O             1 RES     
    5168 CH2          6.5922    48.6633    24.1910 CH2           1 RES     
    5169 CH2          5.7128    48.0310    25.2857 CH2           1 RES     
    5170 CH2          5.4245    49.0751    26.3804 CH2           1 RES     
    5171 CH2          4.5451    48.4428    27.4751 CH2           1 RES     
    5172 CH2          4.2568    49.4870    28.5698 CH2           1 RES     
    5173 CH2          3.3774    48.8547    29.6645 CH2           1 RES     
    5174 CH2          3.0891    49.8988    30.7591 CH2           1 RES     
    5175 CH2          2.2097    49.2665    31.8538 CH2           1 RES     
    5176 CH2          1.9214    50.3106    32.9485 CH2           1 RES     
    5177 CH2          1.0420    49.6783    34.0432 CH2           1 RES     
    5178 CH2          0.7537    50.7224    35.1379 CH2           1 RES     
    5179 CH2         -0.1257    50.0901    36.2326 CH2           1 RES     
    5180 CH2         -0.4140    51.1342    37.3273 CH2           1 RES     
    5181 CH2         -1.2934    50.5019    38.4220 CH2           1 RES     
    5182 CH2         -1.5817    51.5460    39.5167 CH2           1 RES     
    5183 CH2         -2.4611    50.9138    40.6114 CH2           1 RES     
    5184 CH3         -2.7363    51.9104    41.6563 CH3           1 RES     
    5185 CH3         15.5303    54.7860    14.2386 CH3           1 RES     
    5186 CH3         14.4731    52.6975    14.4706 CH3           1 RES     
    5187 CH3         16.6389    52.8466    14.2054 CH3           1 RES     
    5188 NL          15.5650    53.4352    14.7067 NL            1 RES     
    5189 CH2         15.8496    53.4537    16.0695 CH2           1 RES     
    5190 CH2         14.5859    54.1411    16.6192 CH2           1 RES     
    5191 OA          14.6900    54.2624    18.0956 OA            1 RES     
    5192 P           14.0554    52.9454    18.7458 P             1 RES     
    5193 OM          12.5187    52.9047    18.3018 OM            1 RES     
    5194 OM          14.9288    51.7080    18.2302 OM            1 RES     
    5195 OA          14.1491    53.0387    20.3403 OA            1 RES     
    5196 CH2         13.5524    51.8030    20.9081 CH2           1 RES     
    5197 CH1         12.9922    52.0158    22.1270 CH1           1 RES     
    5198 OE          11.7064    52.1803    22.8202 OE            1 RES     
    5199 C           10.9779    51.3062    21.8428 C             1 RES     
    5200 O           11.5017    50.7557    20.8756 O             1 RES     
    5201 CH2          9.7142    51.1539    22.4379 CH2           1 RES     
    5202 CH2          9.4964    51.8774    23.7799 CH2           1 RES     
    5203 CH2          8.1431    51.4524    24.3794 CH2           1 RES     
    5204 CH2          7.9254    52.1759    25.7213 CH2           1 RES     
    5205 CH2          6.5720    51.7509    26.3208 CH2           1 RES     
    5206 CH2          6.3543    52.4743    27.6628 CH2           1 RES     
    5207 CH2          5.0010    52.0493    28.2622 CH2           1 RES     
    5208 CH2          4.7832    52.7728    29.6042 CH2           1 RES     
    5209 CH2          3.4299    52.3478    30.2037 CH2           1 RES     
    5210 CH2          3.2122    53.0713    31.5456 CH2           1 RES     
    5211 CH2          1.8588    52.6463    32.1451 CH2           1 RES     
    5212 CH2          1.6411    53.3697    33.4871 CH2           1 RES     
    5213 CH2          0.2878    52.9448    34.0866 CH2           1 RES     
    5214 CH2          0.0700    53.6682    35.4285 CH2           1 RES     
    5215 CH2         -1.2833    53.2432    36.0280 CH2           1 RES     
    5216 CH2         -1.5010    53.9667    37.3699 CH2           1 RES     
    5217 CH3         -2.7929    53.5610    37.9422 CH3           1 RES     
    5218 CH2         13.6859    53.3849    22.0003 CH2           1 RES     
    5219 OE          13.5389    54.0002    23.3210 OE            1 RES     
    5220 C           14.2477    55.2913    23.0373 C             1 RES     
    5221 O           14.7493    55.5873    21.9539 O             1 RES     
    5222 CH2         13.9910    56.0514    24.1910 CH2           1 RES     
    5223 CH2         13.1470    55.3724    25.2857 CH2           1 RES     
    5224 CH2         12.8027    56.3994    26.3804 CH2           1 RES     
    5225 CH2         11.9587    55.7205    27.4751 CH2           1 RES     
    5226 CH2         11.6145    56.7475    28.5698 CH2           1 RES     
    5227 CH2         10.7705    56.0686    29.6645 CH2           1 RES     
    5228 CH2         10.4262    57.0956    30.7591 CH2           1 RES     
    5229 CH2          9.5822    56.4166    31.8538 CH2           1 RES     
    5230 CH2          9.2379    57.4436    32.9485 CH2           1 RES     
    5231 CH2          8.3939    56.7647    34.0432 CH2           1 RES     
    5232 CH2          8.0497    57.7917    35.1379 CH2           1 RES     
    5233 CH2          7.2057    57.1128    36.2326 CH2           1 RES     
    5234 CH2          6.8614    58.1398    37.3273 CH2           1 RES     
    5235 CH2          6.0174    57.4608    38.4220 CH2           1 RES     
    5236 CH2          5.6731    58.4878    39.5167 CH2           1 RES     
    5237 CH2          4.8291    57.8089    40.6114 CH2           1 RES     
    5238 CH3          4.5005    58.7892    41.6563 CH3           1 RES     
    5239 CH3         22.9997    39.8471    14.2386 CH3           1 RES     
    5240 CH3         22.9222    37.5076    14.4706 CH3           1 RES     
    5241 CH3         24.8229    38.5564    14.2054 CH3           1 RES     
    5242 NL          23.6010    38.6371    14.7067 NL            1 RES     
    5243 CH2         23.8512    38.7739    16.0695 CH2           1 RES     
    5244 CH2         22.4155    38.8641    16.6192 CH2           1 RES     
    5245 OA          22.4587    39.0179    18.0956 OA            1 RES     
    5246 P           22.4389    37.5562    18.7458 P             1 RES     
    5247 OM          21.0628    36.8711    18.3018 OM            1 RES     
    5248 OM          23.7528    36.8027    18.2302 OM            1 RES     
    5249 OA          22.4845    37.6802    20.3403 OA            1 RES     
    5250 CH2         22.4648    36.3082    20.9081 CH2           1 RES     
    5251 CH1         21.8671    36.2649    22.1270 CH1           1 RES     
    5252 OE          20.6319    35.8716    22.8202 OE            1 RES     
    5253 C           20.3402    34.7717    21.8428 C             1 RES     
    5254 O           21.0474    34.4935    20.8756 O             1 RES     
    5255 CH2         19.2586    34.1005    22.4379 CH2           1 RES     
    5256 CH2         18.7560    34.6646    23.7799 CH2           1 RES     
    5257 CH2         17.7083    33.7084    24.3794 CH2           1 RES     
    5258 CH2         17.2057    34.2725    25.7213 CH2           1 RES     
    5259 CH2         16.1579    33.3163    26.3208 CH2           1 RES     
    5260 CH2         15.6553    33.8804    27.6628 CH2           1 RES     
    5261 CH2         14.6076    32.9241    28.2622 CH2           1 RES     
    5262 CH2         14.1050    33.4882    29.6042 CH2           1 RES     
    5263 CH2         13.0572    32.5320    30.2037 CH2           1 RES     
    5264 CH2         12.5547    33.0961    31.5456 CH2           1 RES     
    5265 CH2         11.5069    32.1398    32.1451 CH2           1 RES     
    5266 CH2         11.0043    32.7039    33.4871 CH2           1 RES     
    5267 CH2          9.9566    31.7477    34.0866 CH2           1 RES     
    5268 CH2          9.4540    32.3118    35.4285 CH2           1 RES     
    5269 CH2          8.4062    31.3555    36.0280 CH2           1 RES     
    5270 CH2          7.9036    31.9196    37.3699 CH2           1 RES     
    5271 CH3          6.9035    31.0069    37.9422 CH3           1 RES     
    5272 CH2         21.9185    37.7988    22.0003 CH2           1 RES     
    5273 OE          21.5256    38.2946    23.3210 OE            1 RES     
    5274 C           21.6237    39.7643    23.0373 C             1 RES     
    5275 O           21.9536    40.2442    21.9539 O             1 RES     
    5276 CH2         21.0703    40.3451    24.1910 CH2           1 RES     
    5277 CH2         20.5915    39.3735    25.2857 CH2           1 RES     
    5278 CH2         19.8461    40.1594    26.3804 CH2           1 RES     
    5279 CH2         19.3673    39.1878    27.4751 CH2           1 RES     
    5280 CH2         18.6219    39.9737    28.5698 CH2           1 RES     
    5281 CH2         18.1431    39.0021    29.6645 CH2           1 RES     
    5282 CH2         17.3977    39.7880    30.7591 CH2           1 RES     
    5283 CH2         16.9189    38.8164    31.8538 CH2           1 RES     
    5284 CH2         16.1735    39.6023    32.9485 CH2           1 RES     
    5285 CH2         15.6947    38.6307    34.0432 CH2           1 RES     
    5286 CH2         14.9493    39.4166    35.1379 CH2           1 RES     
    5287 CH2         14.4705    38.4450    36.2326 CH2           1 RES     
    5288 CH2         13.7251    39.2309    37.3273 CH2           1 RES     
    5289 CH2         13.2463    38.2593    38.4220 CH2           1 RES     
    5290 CH2         12.5009    39.0452    39.5167 CH2           1 RES     
    5291 CH2         12.0221    38.0736    40.6114 CH2           1 RES     
    5292 CH3         11.3106    38.8238    41.6563 CH3           1 RES     
    5293 CH3         52.8774    54.7860    14.2386 CH3           1 RES     
    5294 CH3         51.8872    52.6650    14.4706 CH3           1 RES     
    5295 CH3         54.0471    52.8828    14.2054 CH3           1 RES     
    5296 NL          52.9551    53.4370    14.7067 NL            1 RES     
    5297 CH2         53.2389    53.4646    16.0695 CH2           1 RES     
    5298 CH2         51.9540    54.1114    16.6192 CH2           1 RES     
    5299 OA          52.0542    54.2359    18.0956 OA            1 RES     
    5300 P           51.4617    52.8995    18.7458 P             1 RES     
    5301 OM          49.9272    52.8100    18.3018 OM            1 RES     
    5302 OM          52.3741    51.6904    18.2302 OM            1 RES     
    5303 OA          51.5524    52.9957    20.3403 OA            1 RES     
    5304 CH2         50.9953    51.7417    20.9081 CH2           1 RES     
    5305 CH1         50.4287    51.9366    22.1270 CH1           1 RES     
    5306 OE          49.1383    52.0601    22.8202 OE            1 RES     
    5307 C           48.4380    51.1633    21.8428 C             1 RES     
    5308 O           48.9790    50.6296    20.8756 O             1 RES     
    5309 CH2         47.1797    50.9709    22.4379 CH2           1 RES     
    5310 CH2         46.9391    51.6871    23.7799 CH2           1 RES     
    5311 CH2         45.5999    51.2193    24.3794 CH2           1 RES     
    5312 CH2         45.3593    51.9354    25.7213 CH2           1 RES     
    5313 CH2         44.0201    51.4676    26.3208 CH2           1 RES     
    5314 CH2         43.7796    52.1838    27.6628 CH2           1 RES     
    5315 CH2         42.4404    51.7160    28.2622 CH2           1 RES     
    5316 CH2         42.1998    52.4322    29.6042 CH2           1 RES     
    5317 CH2         40.8606    51.9644    30.2037 CH2           1 RES     
    5318 CH2         40.6200    52.6806    31.5456 CH2           1 RES     
    5319 CH2         39.2809    52.2128    32.1451 CH2           1 RES     
    5320 CH2         39.0403    52.9290    33.4871 CH2           1 RES     
    5321 CH2         37.7011    52.4612    34.0866 CH2           1 RES     
    5322 CH2         37.4605    53.1773    35.4285 CH2           1 RES     
    5323 CH2         36.1213    52.7095    36.0280 CH2           1 RES     
    5324 CH2         35.8808    53.4257    37.3699 CH2           1 RES     
    5325 CH3         34.6025    52.9792    37.9422 CH3           1 RES     
    5326 CH2         51.0785    53.3270    22.0003 CH2           1 RES     
    5327 OE          50.9120    53.9373    23.3210 OE            1 RES     
    5328 C           51.5795    55.2503    23.0373 C             1 RES     
    5329 O           52.0714    55.5621    21.9539 O             1 RES     
    5330 CH2         51.2987    56.0018    24.1910 CH2           1 RES     
    5331 CH2         50.4767    55.2964    25.2857 CH2           1 RES     
    5332 CH2         50.0999    56.3119    26.3804 CH2           1 RES     
    5333 CH2         49.2780    55.6065    27.4751 CH2           1 RES     
    5334 CH2         48.9012    56.6220    28.5698 CH2           1 RES     
    5335 CH2         48.0792    55.9166    29.6645 CH2           1 RES     
    5336 CH2         47.7025    56.9322    30.7591 CH2           1 RES     
    5337 CH2         46.8805    56.2267    31.8538 CH2           1 RES     
    5338 CH2         46.5037    57.2423    32.9485 CH2           1 RES     
    5339 CH2         45.6818    56.5369    34.0432 CH2           1 RES     
    5340 CH2         45.3050    57.5524    35.1379 CH2           1 RES     
    5341 CH2         44.4830    56.8470    36.2326 CH2           1 RES     
    5342 CH2         44.1063    57.8625    37.3273 CH2           1 RES     
    5343 CH2         43.2843    57.1571    38.4220 CH2           1 RES     
    5344 CH2         42.9076    58.1726    39.5167 CH2           1 RES     
    5345 CH2         42.0856    57.4672    40.6114 CH2           1 RES     
    5346 CH3         41.7260    58.4366    41.6563 CH3           1 RES     
    5347 CH3          8.0609    17.4388    14.2386 CH3           1 RES     
    5348 CH3          8.0665    15.0981    14.4706 CH3           1 RES     
    5349 CH3          9.9287    16.2137    14.2054 CH3           1 RES     
    5350 NL           8.7048    16.2509    14.7067 NL            1 RES     
    5351 CH2          8.9499    16.3965    16.0695 CH2           1 RES     
    5352 CH2          7.5119    16.4357    16.6192 CH2           1 RES     
    5353 OA           7.5496    16.5910    18.0956 OA            1 RES     
    5354 P            7.5817    15.1294    18.7458 P             1 RES     
    5355 OM           6.2308    14.3959    18.3018 OM            1 RES     
    5356 OM           8.9215    14.4231    18.2302 OM            1 RES     
    5357 OA           7.6229    15.2551    20.3403 OA            1 RES     
    5358 CH2          7.6518    13.8832    20.9081 CH2           1 RES     
    5359 CH1          7.0561    13.8187    22.1270 CH1           1 RES     
    5360 OE           5.8356    13.3818    22.8202 OE            1 RES     
    5361 C            5.5831    12.2723    21.8428 C             1 RES     
    5362 O            6.2997    12.0194    20.8756 O             1 RES     
    5363 CH2          4.5260    11.5631    22.4379 CH2           1 RES     
    5364 CH2          4.0037    12.1090    23.7799 CH2           1 RES     
    5365 CH2          2.9906    11.1162    24.3794 CH2           1 RES     
    5366 CH2          2.4683    11.6621    25.7213 CH2           1 RES     
    5367 CH2          1.4551    10.6693    26.3208 CH2           1 RES     
    5368 CH2          0.9328    11.2152    27.6628 CH2           1 RES     
    5369 CH2         -0.0803    10.2224    28.2622 CH2           1 RES     
    5370 CH2         -0.6026    10.7683    29.6042 CH2           1 RES     
    5371 CH2         -1.6158     9.7755    30.2037 CH2           1 RES     
    5372 CH2         -2.1381    10.3214    31.5456 CH2           1 RES     
    5373 CH2         -3.1512     9.3286    32.1451 CH2           1 RES     
    5374 CH2         -3.6735     9.8745    33.4871 CH2           1 RES     
    5375 CH2         -4.6867     8.8817    34.0866 CH2           1 RES     
    5376 CH2         -5.2090     9.4276    35.4285 CH2           1 RES     
    5377 CH2         -6.2221     8.4348    36.0280 CH2           1 RES     
    5378 CH2         -6.7444     8.9807    37.3699 CH2           1 RES     
    5379 CH3         -7.7115     8.0330    37.9422 CH3           1 RES     
    5380 CH2          7.0530    15.3534    22.0003 CH2           1 RES     
    5381 OE           6.6428    15.8350    23.3210 OE            1 RES     
    5382 C            6.6886    17.3072    23.0373 C             1 RES     
    5383 O            7.0013    17.7986    21.9539 O             1 RES     
    5384 CH2          6.1150    17.8680    24.1910 CH2           1 RES     
    5385 CH2          5.6709    16.8800    25.2857 CH2           1 RES     
    5386 CH2          4.8981    17.6390    26.3804 CH2           1 RES     
    5387 CH2          4.4541    16.6510    27.4751 CH2           1 RES     
    5388 CH2          3.6813    17.4100    28.5698 CH2           1 RES     
    5389 CH2          3.2373    16.4220    29.6645 CH2           1 RES     
    5390 CH2          2.4645    17.1810    30.7591 CH2           1 RES     
    5391 CH2          2.0205    16.1930    31.8538 CH2           1 RES     
    5392 CH2          1.2476    16.9520    32.9485 CH2           1 RES     
    5393 CH2          0.8036    15.9640    34.0432 CH2           1 RES     
    5394 CH2          0.0308    16.7229    35.1379 CH2           1 RES     
    5395 CH2         -0.4132    15.7350    36.2326 CH2           1 RES     
    5396 CH2         -1.1860    16.4939    37.3273 CH2           1 RES     
    5397 CH2         -1.6300    15.5060    38.4220 CH2           1 RES     
    5398 CH2         -2.4028    16.2649    39.5167 CH2           1 RES     
    5399 CH2         -2.8469    15.2769    40.6114 CH2           1 RES     
    5400 CH3         -3.5846    16.0014    41.6563 CH3           1 RES     
    5401 CH3         52.8774    47.3165    14.2386 CH3           1 RES     
    5402 CH3         52.1293    45.0986    14.4706 CH3           1 RES     
    5403 CH3         54.2515    45.5554    14.2054 CH3           1 RES     
    5404 NL          53.1047    45.9846    14.7067 NL            1 RES     
    5405 CH2         53.3836    46.0436    16.0695 CH2           1 RES     
    5406 CH2         52.0347    46.5435    16.6192 CH2           1 RES     
    5407 OA          52.1205    46.6784    18.0956 OA            1 RES     
    5408 P           51.6804    45.2843    18.7458 P             1 RES     
    5409 OM          50.1653    45.0246    18.3018 OM            1 RES     
    5410 OM          52.7216    44.1842    18.2302 OM            1 RES     
    5411 OA          51.7598    45.3899    20.3403 OA            1 RES     
    5412 CH2         51.3457    44.0818    20.9081 CH2           1 RES     
    5413 CH1         50.7609    44.2124    22.1270 CH1           1 RES     
    5414 OE          49.4647    44.1916    22.8202 OE            1 RES     
    5415 C           48.8686    43.2224    21.8428 C             1 RES     
    5416 O           49.4656    42.7523    20.8756 O             1 RES     
    5417 CH2         47.6395    42.8913    22.4379 CH2           1 RES     
    5418 CH2         47.3207    43.5762    23.7799 CH2           1 RES     
    5419 CH2         46.0419    42.9624    24.3794 CH2           1 RES     
    5420 CH2         45.7231    43.6473    25.7213 CH2           1 RES     
    5421 CH2         44.4443    43.0335    26.3208 CH2           1 RES     
    5422 CH2         44.1255    43.7184    27.6628 CH2           1 RES     
    5423 CH2         42.8467    43.1045    28.2622 CH2           1 RES     
    5424 CH2         42.5279    43.7895    29.6042 CH2           1 RES     
    5425 CH2         41.2491    43.1756    30.2037 CH2           1 RES     
    5426 CH2         40.9303    43.8606    31.5456 CH2           1 RES     
    5427 CH2         39.6515    43.2467    32.1451 CH2           1 RES     
    5428 CH2         39.3328    43.9317    33.4871 CH2           1 RES     
    5429 CH2         38.0539    43.3178    34.0866 CH2           1 RES     
    5430 CH2         37.7352    44.0028    35.4285 CH2           1 RES     
    5431 CH2         36.4564    43.3889    36.0280 CH2           1 RES     
    5432 CH2         36.1376    44.0739    37.3699 CH2           1 RES     
    5433 CH3         34.9169    43.4879    37.9422 CH3           1 RES     
    5434 CH2         51.2520    45.6665    22.0003 CH2           1 RES     
    5435 OE          51.0186    46.2545    23.3210 OE            1 RES     
    5436 C           51.5359    47.6336    23.0373 C             1 RES     
    5437 O           51.9901    47.9981    21.9539 O             1 RES     
    5438 CH2         51.1732    48.3492    24.1910 CH2           1 RES     
    5439 CH2         50.4348    47.5567    25.2857 CH2           1 RES     
    5440 CH2         49.9474    48.5240    26.3804 CH2           1 RES     
    5441 CH2         49.2090    47.7315    27.4751 CH2           1 RES     
    5442 CH2         48.7216    48.6989    28.5698 CH2           1 RES     
    5443 CH2         47.9832    47.9064    29.6645 CH2           1 RES     
    5444 CH2         47.4958    48.8737    30.7591 CH2           1 RES     
    5445 CH2         46.7574    48.0812    31.8538 CH2           1 RES     
    5446 CH2         46.2701    49.0485    32.9485 CH2           1 RES     
    5447 CH2         45.5317    48.2561    34.0432 CH2           1 RES     
    5448 CH2         45.0443    49.2234    35.1379 CH2           1 RES     
    5449 CH2         44.3059    48.4309    36.2326 CH2           1 RES     
    5450 CH2         43.8185    49.3982    37.3273 CH2           1 RES     
    5451 CH2         43.0801    48.6057    38.4220 CH2           1 RES     
    5452 CH2         42.5927    49.5730    39.5167 CH2           1 RES     
    5453 CH2         41.8543    48.7806    40.6114 CH2           1 RES     
    5454 CH3         41.3891    49.7039    41.6563 CH3           1 RES     
    5455 CH3          0.5914     9.9694    14.2386 CH3           1 RES     
    5456 CH3         -0.4755     7.8859    14.4706 CH3           1 RES     
    5457 CH3          1.6909     8.0249    14.2054 CH3           1 RES     
    5458 NL           0.6199     8.6185    14.7067 NL            1 RES     
    5459 CH2          0.9045     8.6357    16.0695 CH2           1 RES     
    5460 CH2         -0.3560     9.3290    16.6192 CH2           1 RES     
    5461 OA          -0.2513     9.4498    18.0956 OA            1 RES     
    5462 P           -0.8921     8.1358    18.7458 P             1 RES     
    5463 OM          -2.4289     8.1023    18.3018 OM            1 RES     
    5464 OM          -0.0244     6.8943    18.2302 OM            1 RES     
    5465 OA          -0.7979     8.2286    20.3403 OA            1 RES     
    5466 CH2         -1.4004     6.9958    20.9081 CH2           1 RES     
    5467 CH1         -1.9595     7.2112    22.1270 CH1           1 RES     
    5468 OE          -3.2446     7.3816    22.8202 OE            1 RES     
    5469 C           -3.9771     6.5109    21.8428 C             1 RES     
    5470 O           -3.4559     5.9579    20.8756 O             1 RES     
    5471 CH2         -5.2416     6.3645    22.4379 CH2           1 RES     
    5472 CH2         -5.4559     7.0890    23.7799 CH2           1 RES     
    5473 CH2         -6.8112     6.6703    24.3794 CH2           1 RES     
    5474 CH2         -7.0256     7.3948    25.7213 CH2           1 RES     
    5475 CH2         -8.3809     6.9761    26.3208 CH2           1 RES     
    5476 CH2         -8.5952     7.7006    27.6628 CH2           1 RES     
    5477 CH2         -9.9505     7.2819    28.2622 CH2           1 RES     
    5478 CH2        -10.1649     8.0064    29.6042 CH2           1 RES     
    5479 CH2        -11.5202     7.5877    30.2037 CH2           1 RES     
    5480 CH2        -11.7345     8.3122    31.5456 CH2           1 RES     
    5481 CH2        -13.0899     7.8935    32.1451 CH2           1 RES     
    5482 CH2        -13.3042     8.6180    33.4871 CH2           1 RES     
    5483 CH2        -14.6595     8.1993    34.0866 CH2           1 RES     
    5484 CH2        -14.8738     8.9238    35.4285 CH2           1 RES     
    5485 CH2        -16.2292     8.5051    36.0280 CH2           1 RES     
    5486 CH2        -16.4435     9.2296    37.3699 CH2           1 RES     
    5487 CH3        -17.7372     8.8299    37.9422 CH3           1 RES     
    5488 CH2         -1.2595     8.5770    22.0003 CH2           1 RES     
    5489 OE          -1.4036     9.1930    23.3210 OE            1 RES     
    5490 C           -0.6887    10.4808    23.0373 C             1 RES     
    5491 O           -0.1858    10.7744    21.9539 O             1 RES     
    5492 CH2         -0.9419    11.2420    24.1910 CH2           1 RES     
    5493 CH2         -1.7891    10.5670    25.2857 CH2           1 RES     
    5494 CH2         -2.1286    11.5956    26.3804 CH2           1 RES     
    5495 CH2         -2.9757    10.9206    27.4751 CH2           1 RES     
    5496 CH2         -3.3152    11.9492    28.5698 CH2           1 RES     
    5497 CH2         -4.1623    11.2742    29.6645 CH2           1 RES     
    5498 CH2         -4.5018    12.3028    30.7591 CH2           1 RES     
    5499 CH2         -5.3490    11.6278    31.8538 CH2           1 RES     
    5500 CH2         -5.6885    12.6564    32.9485 CH2           1 RES     
    5501 CH2         -6.5356    11.9814    34.0432 CH2           1 RES     
    5502 CH2         -6.8751    13.0100    35.1379 CH2           1 RES     
    5503 CH2         -7.7222    12.3350    36.2326 CH2           1 RES     
    5504 CH2         -8.0617    13.3636    37.3273 CH2           1 RES     
    5505 CH2         -8.9089    12.6886    38.4220 CH2           1 RES     
    5506 CH2         -9.2484    13.7172    39.5167 CH2           1 RES     
    5507 CH2        -10.0955    13.0422    40.6114 CH2           1 RES     
    5508 CH3        -10.4195    14.0241    41.6563 CH3           1 RES     
    5509 CH3         52.8774    17.4388    14.2386 CH3           1 RES     
    5510 CH3         51.6342    15.4555    14.4706 CH3           1 RES     
    5511 CH3         53.8045    15.4065    14.2054 CH3           1 RES     
    5512 NL          52.7889    16.0905    14.7067 NL            1 RES     
    5513 CH2         53.0739    16.0831    16.0695 CH2           1 RES     
    5514 CH2         51.8781    16.8828    16.6192 CH2           1 RES     
    5515 OA          51.9929    16.9941    18.0956 OA            1 RES     
    5516 P           51.2408    15.7404    18.7458 P             1 RES     
    5517 OM          49.7069    15.8400    18.3018 OM            1 RES     
    5518 OM          51.9978    14.4285    18.2302 OM            1 RES     
    5519 OA          51.3426    15.8248    20.3403 OA            1 RES     
    5520 CH2         50.6358    14.6487    20.9081 CH2           1 RES     
    5521 CH1         50.0973    14.9117    22.1270 CH1           1 RES     
    5522 OE          48.8318    15.1927    22.8202 OE            1 RES     
    5523 C           48.0268    14.3886    21.8428 C             1 RES     
    5524 O           48.4982    13.7926    20.8756 O             1 RES     
    5525 CH2         46.7543    14.3523    22.4379 CH2           1 RES     
    5526 CH2         46.6035    15.0925    23.7799 CH2           1 RES     
    5527 CH2         45.2170    14.7927    24.3794 CH2           1 RES     
    5528 CH2         45.0662    15.5330    25.7213 CH2           1 RES     
    5529 CH2         43.6797    15.2332    26.3208 CH2           1 RES     
    5530 CH2         43.5289    15.9735    27.6628 CH2           1 RES     
    5531 CH2         42.1424    15.6737    28.2622 CH2           1 RES     
    5532 CH2         41.9916    16.4140    29.6042 CH2           1 RES     
    5533 CH2         40.6051    16.1142    30.2037 CH2           1 RES     
    5534 CH2         40.4543    16.8544    31.5456 CH2           1 RES     
    5535 CH2         39.0678    16.5546    32.1451 CH2           1 RES     
    5536 CH2         38.9170    17.2949    33.4871 CH2           1 RES     
    5537 CH2         37.5305    16.9951    34.0866 CH2           1 RES     
    5538 CH2         37.3797    17.7354    35.4285 CH2           1 RES     
    5539 CH2         35.9932    17.4356    36.0280 CH2           1 RES     
    5540 CH2         35.8423    18.1759    37.3699 CH2           1 RES     
    5541 CH3         34.5189    17.8897    37.9422 CH3           1 RES     
    5542 CH2         50.9130    16.2118    22.0003 CH2           1 RES     
    5543 OE          50.8227    16.8379    23.3210 OE            1 RES     
    5544 C           51.6463    18.0591    23.0373 C             1 RES     
    5545 O           52.1728    18.3080    21.9539 O             1 RES     
    5546 CH2         51.4599    18.8393    24.1910 CH2           1 RES     
    5547 CH2         50.5575    18.2402    25.2857 CH2           1 RES     
    5548 CH2         50.3083    19.2943    26.3804 CH2           1 RES     
    5549 CH2         49.4059    18.6951    27.4751 CH2           1 RES     
    5550 CH2         49.1567    19.7492    28.5698 CH2           1 RES     
    5551 CH2         48.2544    19.1501    29.6645 CH2           1 RES     
    5552 CH2         48.0052    20.2042    30.7591 CH2           1 RES     
    5553 CH2         47.1028    19.6051    31.8538 CH2           1 RES     
    5554 CH2         46.8536    20.6592    32.9485 CH2           1 RES     
    5555 CH2         45.9512    20.0600    34.0432 CH2           1 RES     
    5556 CH2         45.7020    21.1141    35.1379 CH2           1 RES     
    5557 CH2         44.7996    20.5150    36.2326 CH2           1 RES     
    5558 CH2         44.5504    21.5691    37.3273 CH2           1 RES     
    5559 CH2         43.6481    20.9699    38.4220 CH2           1 RES     
    5560 CH2         43.3988    22.0241    39.5167 CH2           1 RES     
    5561 CH2         42.4965    21.4249    40.6114 CH2           1 RES     
    5562 CH3         42.2586    22.4311    41.6563 CH3           1 RES     
    5563 CH3         45.4080    24.9083    14.2386 CH3           1 RES     
    5564 CH3         45.7629    22.5946    14.4706 CH3           1 RES     
    5565 CH3         47.4378    23.9757    14.2054 CH3           1 RES     
    5566 NL          46.2220    23.8298    14.7067 NL            1 RES     
    5567 CH2         46.4426    24.0104    16.0695 CH2           1 RES     
    5568 CH2         45.0149    23.8344    16.6192 CH2           1 RES     
    5569 OA          45.0290    23.9936    18.0956 OA            1 RES     
    5570 P           45.2789    22.5532    18.7458 P             1 RES     
    5571 OM          44.0527    21.6263    18.3018 OM            1 RES     
    5572 OM          46.7092    22.0548    18.2302 OM            1 RES     
    5573 OA          45.3009    22.6836    20.3403 OA            1 RES     
    5574 CH2         45.5343    21.3314    20.9081 CH2           1 RES     
    5575 CH1         44.9549    21.1787    22.1270 CH1           1 RES     
    5576 OE          43.8133    20.5645    22.8202 OE            1 RES     
    5577 C           43.7293    19.4297    21.8428 C             1 RES     
    5578 O           44.4756    19.2866    20.8756 O             1 RES     
    5579 CH2         42.7899    18.5707    22.4379 CH2           1 RES     
    5580 CH2         42.1920    19.0326    23.7799 CH2           1 RES     
    5581 CH2         41.3383    17.8996    24.3794 CH2           1 RES     
    5582 CH2         40.7404    18.3614    25.7213 CH2           1 RES     
    5583 CH2         39.8868    17.2285    26.3208 CH2           1 RES     
    5584 CH2         39.2889    17.6903    27.6628 CH2           1 RES     
    5585 CH2         38.4353    16.5574    28.2622 CH2           1 RES     
    5586 CH2         37.8374    17.0192    29.6042 CH2           1 RES     
    5587 CH2         36.9837    15.8863    30.2037 CH2           1 RES     
    5588 CH2         36.3858    16.3481    31.5456 CH2           1 RES     
    5589 CH2         35.5322    15.2152    32.1451 CH2           1 RES     
    5590 CH2         34.9343    15.6770    33.4871 CH2           1 RES     
    5591 CH2         34.0807    14.5441    34.0866 CH2           1 RES     
    5592 CH2         33.4828    15.0059    35.4285 CH2           1 RES     
    5593 CH2         32.6292    13.8729    36.0280 CH2           1 RES     
    5594 CH2         32.0312    14.3348    37.3699 CH2           1 RES     
    5595 CH3         31.2164    13.2533    37.9422 CH3           1 RES     
    5596 CH2         44.7227    22.6958    22.0003 CH2           1 RES     
    5597 OE          44.2452    23.1107    23.3210 OE            1 RES     
    5598 C           44.0708    24.5733    23.0373 C             1 RES     
    5599 O           44.3066    25.1058    21.9539 O             1 RES     
    5600 CH2         43.4198    25.0421    24.1910 CH2           1 RES     
    5601 CH2         43.1283    23.9990    25.2857 CH2           1 RES     
    5602 CH2         42.2508    24.6340    26.3804 CH2           1 RES     
    5603 CH2         41.9593    23.5909    27.4751 CH2           1 RES     
    5604 CH2         41.0818    24.2260    28.5698 CH2           1 RES     
    5605 CH2         40.7902    23.1828    29.6645 CH2           1 RES     
    5606 CH2         39.9128    23.8179    30.7591 CH2           1 RES     
    5607 CH2         39.6212    22.7747    31.8538 CH2           1 RES     
    5608 CH2         38.7438    23.4098    32.9485 CH2           1 RES     
    5609 CH2         38.4522    22.3666    34.0432 CH2           1 RES     
    5610 CH2         37.5748    23.0017    35.1379 CH2           1 RES     
    5611 CH2         37.2832    21.9585    36.2326 CH2           1 RES     
    5612 CH2         36.4058    22.5936    37.3273 CH2           1 RES     
    5613 CH2         36.1142    21.5504    38.4220 CH2           1 RES     
    5614 CH2         35.2368    22.1855    39.5167 CH2           1 RES     
    5615 CH2         34.9452    21.1423    40.6114 CH2           1 RES     
    5616 CH3         34.1076    21.7485    41.6563 CH3           1 RES     
    5617 CH3         37.9386    17.4388    14.2386 CH3           1 RES     
    5618 CH3         38.1204    15.1052    14.4706 CH3           1 RES     
    5619 CH3         39.8934    16.3578    14.2054 CH3           1 RES     
    5620 NL          38.6701    16.3028    14.7067 NL            1 RES     
    5621 CH2         38.9036    16.4665    16.0695 CH2           1 RES     
    5622 CH2         37.4667    16.3972    16.6192 CH2           1 RES     
    5623 OA          37.4926    16.5549    18.0956 OA            1 RES     
    5624 P           37.6347    15.0999    18.7458 P             1 RES     
    5625 OM          36.3429    14.2667    18.3018 OM            1 RES     
    5626 OM          39.0239    14.4964    18.2302 OM            1 RES     
    5627 OA          37.6663    15.2283    20.3403 OA            1 RES     
    5628 CH2         37.7985    13.8625    20.9081 CH2           1 RES     
    5629 CH1         37.2093    13.7533    22.1270 CH1           1 RES     
    5630 OE          36.0252    13.2257    22.8202 OE            1 RES     
    5631 C           35.8570    12.1003    21.8428 C             1 RES     
    5632 O           36.5906    11.9021    20.8756 O             1 RES     
    5633 CH2         34.8563    11.3136    22.4379 CH2           1 RES     
    5634 CH2         34.2944    11.8186    23.7799 CH2           1 RES     
    5635 CH2         33.3589    10.7523    24.3794 CH2           1 RES     
    5636 CH2         32.7970    11.2573    25.7213 CH2           1 RES     
    5637 CH2         31.8614    10.1910    26.3208 CH2           1 RES     
    5638 CH2         31.2995    10.6960    27.6628 CH2           1 RES     
    5639 CH2         30.3640     9.6297    28.2622 CH2           1 RES     
    5640 CH2         29.8021    10.1348    29.6042 CH2           1 RES     
    5641 CH2         28.8666     9.0685    30.2037 CH2           1 RES     
    5642 CH2         28.3047     9.5735    31.5456 CH2           1 RES     
    5643 CH2         27.3692     8.5072    32.1451 CH2           1 RES     
    5644 CH2         26.8072     9.0122    33.4871 CH2           1 RES     
    5645 CH2         25.8717     7.9459    34.0866 CH2           1 RES     
    5646 CH2         25.3098     8.4509    35.4285 CH2           1 RES     
    5647 CH2         24.3743     7.3846    36.0280 CH2           1 RES     
    5648 CH2         23.8124     7.8896    37.3699 CH2           1 RES     
    5649 CH3         22.9194     6.8718    37.9422 CH3           1 RES     
    5650 CH2         37.0906    15.2834    22.0003 CH2           1 RES     
    5651 OE          36.6453    15.7328    23.3210 OE            1 RES     
    5652 C           36.5802    17.2043    23.0373 C             1 RES     
    5653 O           36.8550    17.7177    21.9539 O             1 RES     
    5654 CH2         35.9659    17.7202    24.1910 CH2           1 RES     
    5655 CH2         35.5975    16.7016    25.2857 CH2           1 RES     
    5656 CH2         34.7697    17.4002    26.3804 CH2           1 RES     
    5657 CH2         34.4014    16.3816    27.4751 CH2           1 RES     
    5658 CH2         33.5736    17.0802    28.5698 CH2           1 RES     
    5659 CH2         33.2053    16.0616    29.6645 CH2           1 RES     
    5660 CH2         32.3775    16.7602    30.7591 CH2           1 RES     
    5661 CH2         32.0091    15.7416    31.8538 CH2           1 RES     
    5662 CH2         31.1814    16.4402    32.9485 CH2           1 RES     
    5663 CH2         30.8130    15.4216    34.0432 CH2           1 RES     
    5664 CH2         29.9852    16.1202    35.1379 CH2           1 RES     
    5665 CH2         29.6169    15.1016    36.2326 CH2           1 RES     
    5666 CH2         28.7891    15.8002    37.3273 CH2           1 RES     
    5667 CH2         28.4208    14.7816    38.4220 CH2           1 RES     
    5668 CH2         27.5930    15.4802    39.5167 CH2           1 RES     
    5669 CH2         27.2246    14.4616    40.6114 CH2           1 RES     
    5670 CH3         26.4345    15.1284    41.6563 CH3           1 RES     
    5671 CH3         22.9997     2.5000    14.2386 CH3           1 RES     
    5672 CH3         23.2924     0.1776    14.4706 CH3           1 RES     
    5673 CH3         25.0038     1.5132    14.2054 CH3           1 RES     
    5674 NL          23.7845     1.4000    14.7067 NL            1 RES     
    5675 CH2         24.0099     1.5746    16.0695 CH2           1 RES     
    5676 CH2         22.5779     1.4371    16.6192 CH2           1 RES     
    5677 OA          22.5963     1.5958    18.0956 OA            1 RES     
    5678 P           22.8074     0.1492    18.7458 P             1 RES     
    5679 OM          21.5568    -0.7444    18.3018 OM            1 RES     
    5680 OM          24.2238    -0.3874    18.2302 OM            1 RES     
    5681 OA          22.8329     0.2790    20.3403 OA            1 RES     
    5682 CH2         23.0299    -1.0790    20.9081 CH2           1 RES     
    5683 CH1         22.4466    -1.2161    22.1270 CH1           1 RES     
    5684 OE          21.2889    -1.7994    22.8202 OE            1 RES     
    5685 C           21.1745    -2.9315    21.8428 C             1 RES     
    5686 O           21.9167    -3.0946    20.8756 O             1 RES     
    5687 CH2         20.2123    -3.7650    22.4379 CH2           1 RES     
    5688 CH2         19.6270    -3.2872    23.7799 CH2           1 RES     
    5689 CH2         18.7433    -4.3968    24.3794 CH2           1 RES     
    5690 CH2         18.1580    -3.9191    25.7213 CH2           1 RES     
    5691 CH2         17.2743    -5.0287    26.3208 CH2           1 RES     
    5692 CH2         16.6890    -4.5510    27.6628 CH2           1 RES     
    5693 CH2         15.8052    -5.6606    28.2622 CH2           1 RES     
    5694 CH2         15.2199    -5.1829    29.6042 CH2           1 RES     
    5695 CH2         14.3362    -6.2925    30.2037 CH2           1 RES     
    5696 CH2         13.7509    -5.8148    31.5456 CH2           1 RES     
    5697 CH2         12.8672    -6.9244    32.1451 CH2           1 RES     
    5698 CH2         12.2819    -6.4467    33.4871 CH2           1 RES     
    5699 CH2         11.3981    -7.5563    34.0866 CH2           1 RES     
    5700 CH2         10.8128    -7.0786    35.4285 CH2           1 RES     
    5701 CH2          9.9291    -8.1882    36.0280 CH2           1 RES     
    5702 CH2          9.3438    -7.7104    37.3699 CH2           1 RES     
    5703 CH3          8.5003    -8.7696    37.9422 CH3           1 RES     
    5704 CH2         22.2553     0.3067    22.0003 CH2           1 RES     
    5705 OE          21.7891     0.7343    23.3210 OE            1 RES     
    5706 C           21.6540     2.2011    23.0373 C             1 RES     
    5707 O           21.9041     2.7270    21.9539 O             1 RES     
    5708 CH2         21.0159     2.6872    24.1910 CH2           1 RES     
    5709 CH2         20.6964     1.6522    25.2857 CH2           1 RES     
    5710 CH2         19.8363     2.3107    26.3804 CH2           1 RES     
    5711 CH2         19.5168     1.2757    27.4751 CH2           1 RES     
    5712 CH2         18.6568     1.9341    28.5698 CH2           1 RES     
    5713 CH2         18.3373     0.8991    29.6645 CH2           1 RES     
    5714 CH2         17.4772     1.5576    30.7591 CH2           1 RES     
    5715 CH2         17.1577     0.5226    31.8538 CH2           1 RES     
    5716 CH2         16.2977     1.1810    32.9485 CH2           1 RES     
    5717 CH2         15.9782     0.1460    34.0432 CH2           1 RES     
    5718 CH2         15.1181     0.8045    35.1379 CH2           1 RES     
    5719 CH2         14.7987    -0.2305    36.2326 CH2           1 RES     
    5720 CH2         13.9386     0.4279    37.3273 CH2           1 RES     
    5721 CH2         13.6191    -0.6071    38.4220 CH2           1 RES     
    5722 CH2         12.7590     0.0514    39.5167 CH2           1 RES     
    5723 CH2         12.4396    -0.9836    40.6114 CH2           1 RES     
    5724 CH3         11.6186    -0.3551    41.6563 CH3           1 RES     
    5725 CH3         45.4080     2.5000    14.2386 CH3           1 RES     
    5726 CH3         44.4051     0.3850    14.4706 CH3           1 RES     
    5727 CH3         46.5662     0.5899    14.2054 CH3           1 RES     
    5728 NL          45.4776     1.1506    14.7067 NL            1 RES     
    5729 CH2         45.7615     1.1765    16.0695 CH2           1 RES     
    5730 CH2         44.4805     1.8310    16.6192 CH2           1 RES     
    5731 OA          44.5815     1.9549    18.0956 OA            1 RES     
    5732 P           43.9810     0.6220    18.7458 P             1 RES     
    5733 OM          42.4460     0.5417    18.3018 OM            1 RES     
    5734 OM          44.8861    -0.5925    18.2302 OM            1 RES     
    5735 OA          44.0723     0.7176    20.3403 OA            1 RES     
    5736 CH2         43.5077    -0.5330    20.9081 CH2           1 RES     
    5737 CH1         42.9423    -0.3347    22.1270 CH1           1 RES     
    5738 OE          41.6526    -0.2035    22.8202 OE            1 RES     
    5739 C           40.9470    -1.0961    21.8428 C             1 RES     
    5740 O           41.4848    -1.6329    20.8756 O             1 RES     
    5741 CH2         39.6875    -1.2809    22.4379 CH2           1 RES     
    5742 CH2         39.4512    -0.5633    23.7799 CH2           1 RES     
    5743 CH2         38.1093    -1.0231    24.3794 CH2           1 RES     
    5744 CH2         37.8730    -0.3055    25.7213 CH2           1 RES     
    5745 CH2         36.5310    -0.7653    26.3208 CH2           1 RES     
    5746 CH2         36.2947    -0.0477    27.6628 CH2           1 RES     
    5747 CH2         34.9528    -0.5075    28.2622 CH2           1 RES     
    5748 CH2         34.7165     0.2101    29.6042 CH2           1 RES     
    5749 CH2         33.3745    -0.2496    30.2037 CH2           1 RES     
    5750 CH2         33.1382     0.4680    31.5456 CH2           1 RES     
    5751 CH2         31.7963     0.0082    32.1451 CH2           1 RES     
    5752 CH2         31.5600     0.7258    33.4871 CH2           1 RES     
    5753 CH2         30.2180     0.2660    34.0866 CH2           1 RES     
    5754 CH2         29.9817     0.9836    35.4285 CH2           1 RES     
    5755 CH2         28.6398     0.5238    36.0280 CH2           1 RES     
    5756 CH2         28.4035     1.2414    37.3699 CH2           1 RES     
    5757 CH3         27.1225     0.8026    37.9422 CH3           1 RES     
    5758 CH2         43.6004     1.0518    22.0003 CH2           1 RES     
    5759 OE          43.4375     1.6631    23.3210 OE            1 RES     
    5760 C           44.1128     2.9721    23.0373 C             1 RES     
    5761 O           44.6066     3.2809    21.9539 O             1 RES     
    5762 CH2         43.8365     3.7252    24.1910 CH2           1 RES     
    5763 CH2         43.0104     3.0248    25.2857 CH2           1 RES     
    5764 CH2         42.6397     4.0425    26.3804 CH2           1 RES     
    5765 CH2         41.8135     3.3420    27.4751 CH2           1 RES     
    5766 CH2         41.4428     4.3598    28.5698 CH2           1 RES     
    5767 CH2         40.6167     3.6593    29.6645 CH2           1 RES     
    5768 CH2         40.2460     4.6771    30.7591 CH2           1 RES     
    5769 CH2         39.4198     3.9766    31.8538 CH2           1 RES     
    5770 CH2         39.0491     4.9944    32.9485 CH2           1 RES     
    5771 CH2         38.2229     4.2939    34.0432 CH2           1 RES     
    5772 CH2         37.8523     5.3117    35.1379 CH2           1 RES     
    5773 CH2         37.0261     4.6112    36.2326 CH2           1 RES     
    5774 CH2         36.6554     5.6290    37.3273 CH2           1 RES     
    5775 CH2         35.8292     4.9285    38.4220 CH2           1 RES     
    5776 CH2         35.4586     5.9462    39.5167 CH2           1 RES     
    5777 CH2         34.6324     5.2458    40.6114 CH2           1 RES     
    5778 CH3         34.2786     6.2173    41.6563 CH3           1 RES     
    5779 CH3         15.5303     2.5000    14.2386 CH3           1 RES     
    5780 CH3         15.5886     0.1600    14.4706 CH3           1 RES     
    5781 CH3         17.4253     1.3172    14.2054 CH3           1 RES     
    5782 NL          16.2008     1.3269    14.7067 NL            1 RES     
    5783 CH2         16.4426     1.4780    16.0695 CH2           1 RES     
    5784 CH2         15.0041     1.4847    16.6192 CH2           1 RES     
    5785 OA          15.0383     1.6408    18.0956 OA            1 RES     
    5786 P           15.1033     0.1804    18.7458 P             1 RES     
    5787 OM          13.7693    -0.5834    18.3018 OM            1 RES     
    5788 OM          16.4587    -0.4956    18.2302 OM            1 RES     
    5789 OA          15.1416     0.3069    20.3403 OA            1 RES     
    5790 CH2         15.2015    -1.0640    20.9081 CH2           1 RES     
    5791 CH1         14.6074    -1.1419    22.1270 CH1           1 RES     
    5792 OE          13.3970    -1.6062    22.8202 OE            1 RES     
    5793 C           13.1696    -2.7211    21.8428 C             1 RES     
    5794 O           13.8917    -2.9578    20.8756 O             1 RES     
    5795 CH2         12.1288    -3.4539    22.4379 CH2           1 RES     
    5796 CH2         11.5943    -2.9199    23.7799 CH2           1 RES     
    5797 CH2         10.6038    -3.9353    24.3794 CH2           1 RES     
    5798 CH2         10.0693    -3.4013    25.7213 CH2           1 RES     
    5799 CH2          9.0788    -4.4167    26.3208 CH2           1 RES     
    5800 CH2          8.5444    -3.8827    27.6628 CH2           1 RES     
    5801 CH2          7.5538    -4.8981    28.2622 CH2           1 RES     
    5802 CH2          7.0194    -4.3641    29.6042 CH2           1 RES     
    5803 CH2          6.0288    -5.3795    30.2037 CH2           1 RES     
    5804 CH2          5.4944    -4.8455    31.5456 CH2           1 RES     
    5805 CH2          4.5038    -5.8609    32.1451 CH2           1 RES     
    5806 CH2          3.9694    -5.3269    33.4871 CH2           1 RES     
    5807 CH2          2.9789    -6.3423    34.0866 CH2           1 RES     
    5808 CH2          2.4444    -5.8083    35.4285 CH2           1 RES     
    5809 CH2          1.4539    -6.8237    36.0280 CH2           1 RES     
    5810 CH2          0.9194    -6.2897    37.3699 CH2           1 RES     
    5811 CH3         -0.0261    -7.2590    37.9422 CH3           1 RES     
    5812 CH2         14.5697     0.3924    22.0003 CH2           1 RES     
    5813 OE          14.1487     0.8646    23.3210 OE            1 RES     
    5814 C           14.1614     2.3375    23.0373 C             1 RES     
    5815 O           14.4629     2.8357    21.9539 O             1 RES     
    5816 CH2         13.5752     2.8852    24.1910 CH2           1 RES     
    5817 CH2         13.1536     1.8875    25.2857 CH2           1 RES     
    5818 CH2         12.3639     2.6288    26.3804 CH2           1 RES     
    5819 CH2         11.9422     1.6311    27.4751 CH2           1 RES     
    5820 CH2         11.1525     2.3724    28.5698 CH2           1 RES     
    5821 CH2         10.7309     1.3747    29.6645 CH2           1 RES     
    5822 CH2          9.9411     2.1160    30.7591 CH2           1 RES     
    5823 CH2          9.5195     1.1183    31.8538 CH2           1 RES     
    5824 CH2          8.7298     1.8597    32.9485 CH2           1 RES     
    5825 CH2          8.3081     0.8619    34.0432 CH2           1 RES     
    5826 CH2          7.5184     1.6033    35.1379 CH2           1 RES     
    5827 CH2          7.0968     0.6056    36.2326 CH2           1 RES     
    5828 CH2          6.3071     1.3469    37.3273 CH2           1 RES     
    5829 CH2          5.8854     0.3492    38.4220 CH2           1 RES     
    5830 CH2          5.0957     1.0905    39.5167 CH2           1 RES     
    5831 CH2          4.6740     0.0928    40.6114 CH2           1 RES     
    5832 CH3          3.9202     0.8004    41.6563 CH3           1 RES     
    5833 CH3         15.5303    32.3777    14.2386 CH3           1 RES     
    5834 CH3         14.7637    30.1660    14.4706 CH3           1 RES     
    5835 CH3         16.8897    30.6051    14.2054 CH3           1 RES     
    5836 NL          15.7464    31.0439    14.7067 NL            1 RES     
    5837 CH2         16.0259    31.1005    16.0695 CH2           1 RES     
    5838 CH2         14.6812    31.6117    16.6192 CH2           1 RES     
    5839 OA          14.7681    31.7458    18.0956 OA            1 RES     
    5840 P           14.3164    30.3555    18.7458 P             1 RES     
    5841 OM          12.7992    30.1084    18.3018 OM            1 RES     
    5842 OM          15.3483    29.2468    18.2302 OM            1 RES     
    5843 OA          14.3967    30.4605    20.3403 OA            1 RES     
    5844 CH2         13.9717    29.1558    20.9081 CH2           1 RES     
    5845 CH1         13.3880    29.2913    22.1270 CH1           1 RES     
    5846 OE          12.0917    29.2813    22.8202 OE            1 RES     
    5847 C           11.4875    28.3171    21.8428 C             1 RES     
    5848 O           12.0806    27.8421    20.8756 O             1 RES     
    5849 CH2         10.2556    27.9962    22.4379 CH2           1 RES     
    5850 CH2          9.9426    28.6838    23.7799 CH2           1 RES     
    5851 CH2          8.6587    28.0806    24.3794 CH2           1 RES     
    5852 CH2          8.3456    28.7682    25.7213 CH2           1 RES     
    5853 CH2          7.0618    28.1650    26.3208 CH2           1 RES     
    5854 CH2          6.7487    28.8526    27.6628 CH2           1 RES     
    5855 CH2          5.4648    28.2494    28.2622 CH2           1 RES     
    5856 CH2          5.1518    28.9370    29.6042 CH2           1 RES     
    5857 CH2          3.8679    28.3339    30.2037 CH2           1 RES     
    5858 CH2          3.5548    29.0214    31.5456 CH2           1 RES     
    5859 CH2          2.2709    28.4183    32.1451 CH2           1 RES     
    5860 CH2          1.9579    29.1059    33.4871 CH2           1 RES     
    5861 CH2          0.6740    28.5027    34.0866 CH2           1 RES     
    5862 CH2          0.3610    29.1903    35.4285 CH2           1 RES     
    5863 CH2         -0.9229    28.5871    36.0280 CH2           1 RES     
    5864 CH2         -1.2360    29.2747    37.3699 CH2           1 RES     
    5865 CH3         -2.4615    28.6989    37.9422 CH3           1 RES     
    5866 CH2         13.8911    30.7413    22.0003 CH2           1 RES     
    5867 OE          13.6627    31.3312    23.3210 OE            1 RES     
    5868 C           14.1914    32.7059    23.0373 C             1 RES     
    5869 O           14.6486    33.0667    21.9539 O             1 RES     
    5870 CH2         13.8347    33.4245    24.1910 CH2           1 RES     
    5871 CH2         13.0898    32.6382    25.2857 CH2           1 RES     
    5872 CH2         12.6105    33.6096    26.3804 CH2           1 RES     
    5873 CH2         11.8655    32.8233    27.4751 CH2           1 RES     
    5874 CH2         11.3862    33.7946    28.5698 CH2           1 RES     
    5875 CH2         10.6412    33.0083    29.6645 CH2           1 RES     
    5876 CH2         10.1619    33.9796    30.7591 CH2           1 RES     
    5877 CH2          9.4169    33.1934    31.8538 CH2           1 RES     
    5878 CH2          8.9376    34.1647    32.9485 CH2           1 RES     
    5879 CH2          8.1926    33.3784    34.0432 CH2           1 RES     
    5880 CH2          7.7133    34.3497    35.1379 CH2           1 RES     
    5881 CH2          6.9683    33.5634    36.2326 CH2           1 RES     
    5882 CH2          6.4890    34.5348    37.3273 CH2           1 RES     
    5883 CH2          5.7440    33.7485    38.4220 CH2           1 RES     
    5884 CH2          5.2647    34.7198    39.5167 CH2           1 RES     
    5885 CH2          4.5197    33.9335    40.6114 CH2           1 RES     
    5886 CH3          4.0622    34.8607    41.6563 CH3           1 RES     
    5887 CH3          8.0609    39.8471    14.2386 CH3           1 RES     
    5888 CH3          7.9234    37.5104    14.4706 CH3           1 RES     
    5889 CH3          9.8504    38.5101    14.2054 CH3           1 RES     
    5890 NL           8.6310    38.6221    14.7067 NL            1 RES     
    5891 CH2          8.8845    38.7524    16.0695 CH2           1 RES     
    5892 CH2          7.4516    38.8794    16.6192 CH2           1 RES     
    5893 OA           7.4988    39.0321    18.0956 OA            1 RES     
    5894 P            7.4414    37.5713    18.7458 P             1 RES     
    5895 OM           6.0483    36.9217    18.3018 OM            1 RES     
    5896 OM           8.7356    36.7844    18.2302 OM            1 RES     
    5897 OA           7.4902    37.6942    20.3403 OA            1 RES     
    5898 CH2          7.4353    36.3231    20.9081 CH2           1 RES     
    5899 CH1          6.8367    36.2951    22.1270 CH1           1 RES     
    5900 OE           5.5918    35.9336    22.8202 OE            1 RES     
    5901 C            5.2720    34.8416    21.8428 C             1 RES     
    5902 O            5.9718    34.5454    20.8756 O             1 RES     
    5903 CH2          4.1735    34.1984    22.4379 CH2           1 RES     
    5904 CH2          3.6856    34.7752    23.7799 CH2           1 RES     
    5905 CH2          2.6136    33.8462    24.3794 CH2           1 RES     
    5906 CH2          2.1257    34.4230    25.7213 CH2           1 RES     
    5907 CH2          1.0537    33.4940    26.3208 CH2           1 RES     
    5908 CH2          0.5658    34.0708    27.6628 CH2           1 RES     
    5909 CH2         -0.5062    33.1417    28.2622 CH2           1 RES     
    5910 CH2         -0.9941    33.7185    29.6042 CH2           1 RES     
    5911 CH2         -2.0660    32.7895    30.2037 CH2           1 RES     
    5912 CH2         -2.5540    33.3663    31.5456 CH2           1 RES     
    5913 CH2         -3.6259    32.4373    32.1451 CH2           1 RES     
    5914 CH2         -4.1139    33.0141    33.4871 CH2           1 RES     
    5915 CH2         -5.1858    32.0850    34.0866 CH2           1 RES     
    5916 CH2         -5.6738    32.6618    35.4285 CH2           1 RES     
    5917 CH2         -6.7457    31.7328    36.0280 CH2           1 RES     
    5918 CH2         -7.2337    32.3096    37.3699 CH2           1 RES     
    5919 CH3         -8.2569    31.4228    37.9422 CH3           1 RES     
    5920 CH2          6.9274    37.8272    22.0003 CH2           1 RES     
    5921 OE           6.5474    38.3330    23.3210 OE            1 RES     
    5922 C            6.6832    39.7996    23.0373 C             1 RES     
    5923 O            7.0253    40.2709    21.9539 O             1 RES     
    5924 CH2          6.1448    40.3944    24.1910 CH2           1 RES     
    5925 CH2          5.6413    39.4354    25.2857 CH2           1 RES     
    5926 CH2          4.9163    40.2402    26.3804 CH2           1 RES     
    5927 CH2          4.4127    39.2812    27.4751 CH2           1 RES     
    5928 CH2          3.6877    40.0860    28.5698 CH2           1 RES     
    5929 CH2          3.1842    39.1270    29.6645 CH2           1 RES     
    5930 CH2          2.4592    39.9318    30.7591 CH2           1 RES     
    5931 CH2          1.9556    38.9728    31.8538 CH2           1 RES     
    5932 CH2          1.2306    39.7775    32.9485 CH2           1 RES     
    5933 CH2          0.7270    38.8185    34.0432 CH2           1 RES     
    5934 CH2          0.0021    39.6233    35.1379 CH2           1 RES     
    5935 CH2         -0.5015    38.6643    36.2326 CH2           1 RES     
    5936 CH2         -1.2265    39.4691    37.3273 CH2           1 RES     
    5937 CH2         -1.7301    38.5101    38.4220 CH2           1 RES     
    5938 CH2         -2.4550    39.3149    39.5167 CH2           1 RES     
    5939 CH2         -2.9586    38.3559    40.6114 CH2           1 RES     
    5940 CH3         -3.6506    39.1241    41.6563 CH3           1 RES     
    5941 CH3          0.5914    32.3777    14.2386 CH3           1 RES     
    5942 CH3         -0.1783    30.1671    14.4706 CH3           1 RES     
    5943 CH3          1.9483    30.6032    14.2054 CH3           1 RES     
    5944 NL           0.8057    31.0436    14.7067 NL            1 RES     
    5945 CH2          1.0852    31.0998    16.0695 CH2           1 RES     
    5946 CH2         -0.2587    31.6128    16.6192 CH2           1 RES     
    5947 OA          -0.1717    31.7469    18.0956 OA            1 RES     
    5948 P           -0.6253    30.3572    18.7458 P             1 RES     
    5949 OM          -2.1428    30.1123    18.3018 OM            1 RES     
    5950 OM           0.4051    29.2470    18.2302 OM            1 RES     
    5951 OA          -0.5448    30.4621    20.3403 OA            1 RES     
    5952 CH2         -0.9717    29.1580    20.9081 CH2           1 RES     
    5953 CH1         -1.5552    29.2943    22.1270 CH1           1 RES     
    5954 OE          -2.8515    29.2861    22.8202 OE            1 RES     
    5955 C           -3.4571    28.3228    21.8428 C             1 RES     
    5956 O           -2.8646    27.8469    20.8756 O             1 RES     
    5957 CH2         -4.6893    28.0036    22.4379 CH2           1 RES     
    5958 CH2         -5.0014    28.6917    23.7799 CH2           1 RES     
    5959 CH2         -6.2862    28.0903    24.3794 CH2           1 RES     
    5960 CH2         -6.5982    28.7783    25.7213 CH2           1 RES     
    5961 CH2         -7.8830    28.1769    26.3208 CH2           1 RES     
    5962 CH2         -8.1951    28.8649    27.6628 CH2           1 RES     
    5963 CH2         -9.4798    28.2635    28.2622 CH2           1 RES     
    5964 CH2         -9.7919    28.9516    29.6042 CH2           1 RES     
    5965 CH2        -11.0766    28.3502    30.2037 CH2           1 RES     
    5966 CH2        -11.3887    29.0382    31.5456 CH2           1 RES     
    5967 CH2        -12.6734    28.4368    32.1451 CH2           1 RES     
    5968 CH2        -12.9855    29.1248    33.4871 CH2           1 RES     
    5969 CH2        -14.2703    28.5235    34.0866 CH2           1 RES     
    5970 CH2        -14.5823    29.2115    35.4285 CH2           1 RES     
    5971 CH2        -15.8671    28.6101    36.0280 CH2           1 RES     
    5972 CH2        -16.1792    29.2981    37.3699 CH2           1 RES     
    5973 CH3        -17.4055    28.7241    37.9422 CH3           1 RES     
    5974 CH2         -1.0500    30.7436    22.0003 CH2           1 RES     
    5975 OE          -1.2776    31.3338    23.3210 OE            1 RES     
    5976 C           -0.7470    32.7078    23.0373 C             1 RES     
    5977 O           -0.2892    33.0679    21.9539 O             1 RES     
    5978 CH2         -1.1026    33.4269    24.1910 CH2           1 RES     
    5979 CH2         -1.8487    32.6416    25.2857 CH2           1 RES     
    5980 CH2         -2.3267    33.6136    26.3804 CH2           1 RES     
    5981 CH2         -3.0727    32.8284    27.4751 CH2           1 RES     
    5982 CH2         -3.5507    33.8004    28.5698 CH2           1 RES     
    5983 CH2         -4.2968    33.0151    29.6645 CH2           1 RES     
    5984 CH2         -4.7747    33.9872    30.7591 CH2           1 RES     
    5985 CH2         -5.5208    33.2019    31.8538 CH2           1 RES     
    5986 CH2         -5.9988    34.1739    32.9485 CH2           1 RES     
    5987 CH2         -6.7448    33.3887    34.0432 CH2           1 RES     
    5988 CH2         -7.2228    34.3607    35.1379 CH2           1 RES     
    5989 CH2         -7.9689    33.5754    36.2326 CH2           1 RES     
    5990 CH2         -8.4468    34.5474    37.3273 CH2           1 RES     
    5991 CH2         -9.1929    33.7622    38.4220 CH2           1 RES     
    5992 CH2         -9.6708    34.7342    39.5167 CH2           1 RES     
    5993 CH2        -10.4169    33.9490    40.6114 CH2           1 RES     
    5994 CH3        -10.8731    34.8768    41.6563 CH3           1 RES     
    5995 CH3         22.9997    24.9083    14.2386 CH3           1 RES     
    5996 CH3         22.6125    22.5998    14.4706 CH3           1 RES     
    5997 CH3         24.6355    23.3871    14.2054 CH3           1 RES     
    5998 NL          23.4352    23.6292    14.7067 NL            1 RES     
    5999 CH2         23.7013    23.7316    16.0695 CH2           1 RES     
    6000 CH2         22.2902    24.0114    16.6192 CH2           1 RES     
    6001 OA          22.3535    24.1582    18.0956 OA            1 RES     
    6002 P           22.1399    22.7120    18.7458 P             1 RES     
    6003 OM          20.6851    22.2155    18.3018 OM            1 RES     
    6004 OM          23.3422    21.7908    18.2302 OM            1 RES     
    6005 OA          22.2015    22.8289    20.3403 OA            1 RES     
    6006 CH2         21.9999    21.4717    20.9081 CH2           1 RES     
    6007 CH1         21.4018    21.5080    22.1270 CH1           1 RES     
    6008 OE          20.1253    21.2821    22.8202 OE            1 RES     
    6009 C           19.6903    20.2307    21.8428 C             1 RES     
    6010 O           20.3542    19.8611    20.8756 O             1 RES     
    6011 CH2         18.5292    19.7089    22.4379 CH2           1 RES     
    6012 CH2         18.1059    20.3347    23.7799 CH2           1 RES     
    6013 CH2         16.9405    19.5260    24.3794 CH2           1 RES     
    6014 CH2         16.5172    20.1518    25.7213 CH2           1 RES     
    6015 CH2         15.3518    19.3430    26.3208 CH2           1 RES     
    6016 CH2         14.9285    19.9688    27.6628 CH2           1 RES     
    6017 CH2         13.7632    19.1600    28.2622 CH2           1 RES     
    6018 CH2         13.3399    19.7858    29.6042 CH2           1 RES     
    6019 CH2         12.1745    18.9771    30.2037 CH2           1 RES     
    6020 CH2         11.7512    19.6029    31.5456 CH2           1 RES     
    6021 CH2         10.5858    18.7941    32.1451 CH2           1 RES     
    6022 CH2         10.1625    19.4199    33.4871 CH2           1 RES     
    6023 CH2          8.9972    18.6112    34.0866 CH2           1 RES     
    6024 CH2          8.5739    19.2370    35.4285 CH2           1 RES     
    6025 CH2          7.4085    18.4282    36.0280 CH2           1 RES     
    6026 CH2          6.9852    19.0540    37.3699 CH2           1 RES     
    6027 CH3          5.8728    18.2820    37.9422 CH3           1 RES     
    6028 CH2         21.6563    23.0215    22.0003 CH2           1 RES     
    6029 OE          21.3327    23.5651    23.3210 OE            1 RES     
    6030 C           21.6249    25.0088    23.0373 C             1 RES     
    6031 O           22.0156    25.4406    21.9539 O             1 RES     
    6032 CH2         21.1534    25.6578    24.1910 CH2           1 RES     
    6033 CH2         20.5499    24.7583    25.2857 CH2           1 RES     
    6034 CH2         19.9154    25.6362    26.3804 CH2           1 RES     
    6035 CH2         19.3119    24.7367    27.4751 CH2           1 RES     
    6036 CH2         18.6774    25.6146    28.5698 CH2           1 RES     
    6037 CH2         18.0739    24.7151    29.6645 CH2           1 RES     
    6038 CH2         17.4394    25.5930    30.7591 CH2           1 RES     
    6039 CH2         16.8359    24.6935    31.8538 CH2           1 RES     
    6040 CH2         16.2014    25.5714    32.9485 CH2           1 RES     
    6041 CH2         15.5979    24.6719    34.0432 CH2           1 RES     
    6042 CH2         14.9634    25.5498    35.1379 CH2           1 RES     
    6043 CH2         14.3599    24.6503    36.2326 CH2           1 RES     
    6044 CH2         13.7254    25.5282    37.3273 CH2           1 RES     
    6045 CH2         13.1219    24.6287    38.4220 CH2           1 RES     
    6046 CH2         12.4874    25.5066    39.5167 CH2           1 RES     
    6047 CH2         11.8839    24.6071    40.6114 CH2           1 RES     
    6048 CH3         11.2782    25.4451    41.6563 CH3           1 RES     
    6049 CH3         45.4080     9.9694    14.2386 CH3           1 RES     
    6050 CH3         44.5848     7.7782    14.4706 CH3           1 RES     
    6051 CH3         46.7214     8.1625    14.2054 CH3           1 RES     
    6052 NL          45.5898     8.6305    14.7067 NL            1 RES     
    6053 CH2         45.8706     8.6799    16.0695 CH2           1 RES     
    6054 CH2         44.5395     9.2255    16.6192 CH2           1 RES     
    6055 OA          44.6298     9.3574    18.0956 OA            1 RES     
    6056 P           44.1425     7.9790    18.7458 P             1 RES     
    6057 OM          42.6195     7.7711    18.3018 OM            1 RES     
    6058 OM          45.1457     6.8442    18.2302 OM            1 RES     
    6059 OA          44.2255     8.0820    20.3403 OA            1 RES     
    6060 CH2         43.7671     6.7886    20.9081 CH2           1 RES     
    6061 CH1         43.1871     6.9391    22.1270 CH1           1 RES     
    6062 OE          41.8909     6.9624    22.8202 OE            1 RES     
    6063 C           41.2622     6.0141    21.8428 C             1 RES     
    6064 O           41.8429     5.5239    20.8756 O             1 RES     
    6065 CH2         40.0225     5.7249    22.4379 CH2           1 RES     
    6066 CH2         39.7272     6.4203    23.7799 CH2           1 RES     
    6067 CH2         38.4283     5.8503    24.3794 CH2           1 RES     
    6068 CH2         38.1330     6.5458    25.7213 CH2           1 RES     
    6069 CH2         36.8340     5.9757    26.3208 CH2           1 RES     
    6070 CH2         36.5387     6.6712    27.6628 CH2           1 RES     
    6071 CH2         35.2398     6.1012    28.2622 CH2           1 RES     
    6072 CH2         34.9445     6.7966    29.6042 CH2           1 RES     
    6073 CH2         33.6455     6.2266    30.2037 CH2           1 RES     
    6074 CH2         33.3503     6.9220    31.5456 CH2           1 RES     
    6075 CH2         32.0513     6.3520    32.1451 CH2           1 RES     
    6076 CH2         31.7560     7.0474    33.4871 CH2           1 RES     
    6077 CH2         30.4570     6.4774    34.0866 CH2           1 RES     
    6078 CH2         30.1618     7.1728    35.4285 CH2           1 RES     
    6079 CH2         28.8628     6.6028    36.0280 CH2           1 RES     
    6080 CH2         28.5675     7.2982    37.3699 CH2           1 RES     
    6081 CH3         27.3276     6.7541    37.9422 CH3           1 RES     
    6082 CH2         43.7273     8.3756    22.0003 CH2           1 RES     
    6083 OE          43.5141     8.9712    23.3210 OE            1 RES     
    6084 C           44.0780    10.3320    23.0373 C             1 RES     
    6085 O           44.5443    10.6808    21.9539 O             1 RES     
    6086 CH2         43.7399    11.0594    24.1910 CH2           1 RES     
    6087 CH2         42.9750    10.2926    25.2857 CH2           1 RES     
    6088 CH2         42.5208    11.2759    26.3804 CH2           1 RES     
    6089 CH2         41.7558    10.5090    27.4751 CH2           1 RES     
    6090 CH2         41.3016    11.4923    28.5698 CH2           1 RES     
    6091 CH2         40.5367    10.7254    29.6645 CH2           1 RES     
    6092 CH2         40.0825    11.7088    30.7591 CH2           1 RES     
    6093 CH2         39.3176    10.9419    31.8538 CH2           1 RES     
    6094 CH2         38.8634    11.9252    32.9485 CH2           1 RES     
    6095 CH2         38.0984    11.1583    34.0432 CH2           1 RES     
    6096 CH2         37.6443    12.1417    35.1379 CH2           1 RES     
    6097 CH2         36.8793    11.3748    36.2326 CH2           1 RES     
    6098 CH2         36.4251    12.3581    37.3273 CH2           1 RES     
    6099 CH2         35.6602    11.5912    38.4220 CH2           1 RES     
    6100 CH2         35.2060    12.5746    39.5167 CH2           1 RES     
    6101 CH2         34.4411    11.8077    40.6114 CH2           1 RES     
    6102 CH3         34.0075    12.7463    41.6563 CH3           1 RES     
    6103 CH3          0.5914    17.4388    14.2386 CH3           1 RES     
    6104 CH3          0.2736    15.1198    14.4706 CH3           1 RES     
    6105 CH3          2.2721    15.9674    14.2054 CH3           1 RES     
    6106 NL           1.0650    16.1734    14.7067 NL            1 RES     
    6107 CH2          1.3279    16.2837    16.0695 CH2           1 RES     
    6108 CH2         -0.0909    16.5211    16.6192 CH2           1 RES     
    6109 OA          -0.0320    16.6697    18.0956 OA            1 RES     
    6110 P           -0.2022    15.2178    18.7458 P             1 RES     
    6111 OM          -1.6414    14.6779    18.3018 OM            1 RES     
    6112 OM           1.0272    14.3331    18.2302 OM            1 RES     
    6113 OA          -0.1440    15.3365    20.3403 OA            1 RES     
    6114 CH2         -0.3049    13.9738    20.9081 CH2           1 RES     
    6115 CH1         -0.9038    13.9922    22.1270 CH1           1 RES     
    6116 OE          -2.1730    13.7281    22.8202 OE            1 RES     
    6117 C           -2.5763    12.6641    21.8428 C             1 RES     
    6118 O           -1.9015    12.3146    20.8756 O             1 RES     
    6119 CH2         -3.7212    12.1078    22.4379 CH2           1 RES     
    6120 CH2         -4.1631    12.7206    23.7799 CH2           1 RES     
    6121 CH2         -5.3037    11.8773    24.3794 CH2           1 RES     
    6122 CH2         -5.7455    12.4901    25.7213 CH2           1 RES     
    6123 CH2         -6.8862    11.6468    26.3208 CH2           1 RES     
    6124 CH2         -7.3280    12.2596    27.6628 CH2           1 RES     
    6125 CH2         -8.4686    11.4163    28.2622 CH2           1 RES     
    6126 CH2         -8.9105    12.0291    29.6042 CH2           1 RES     
    6127 CH2        -10.0511    11.1858    30.2037 CH2           1 RES     
    6128 CH2        -10.4929    11.7986    31.5456 CH2           1 RES     
    6129 CH2        -11.6336    10.9553    32.1451 CH2           1 RES     
    6130 CH2        -12.0754    11.5681    33.4871 CH2           1 RES     
    6131 CH2        -13.2160    10.7248    34.0866 CH2           1 RES     
    6132 CH2        -13.6579    11.3376    35.4285 CH2           1 RES     
    6133 CH2        -14.7985    10.4943    36.0280 CH2           1 RES     
    6134 CH2        -15.2404    11.1071    37.3699 CH2           1 RES     
    6135 CH3        -16.3291    10.3021    37.9422 CH3           1 RES     
    6136 CH2         -0.6948    15.5127    22.0003 CH2           1 RES     
    6137 OE          -1.0346    16.0463    23.3210 OE            1 RES     
    6138 C           -0.7858    17.4981    23.0373 C             1 RES     
    6139 O           -0.4082    17.9415    21.9539 O             1 RES     
    6140 CH2         -1.2765    18.1327    24.1910 CH2           1 RES     
    6141 CH2         -1.8528    17.2155    25.2857 CH2           1 RES     
    6142 CH2         -2.5133    18.0740    26.3804 CH2           1 RES     
    6143 CH2         -3.0896    17.1568    27.4751 CH2           1 RES     
    6144 CH2         -3.7501    18.0153    28.5698 CH2           1 RES     
    6145 CH2         -4.3264    17.0981    29.6645 CH2           1 RES     
    6146 CH2         -4.9869    17.9566    30.7591 CH2           1 RES     
    6147 CH2         -5.5632    17.0394    31.8538 CH2           1 RES     
    6148 CH2         -6.2237    17.8979    32.9485 CH2           1 RES     
    6149 CH2         -6.8000    16.9807    34.0432 CH2           1 RES     
    6150 CH2         -7.4605    17.8391    35.1379 CH2           1 RES     
    6151 CH2         -8.0368    16.9220    36.2326 CH2           1 RES     
    6152 CH2         -8.6973    17.7804    37.3273 CH2           1 RES     
    6153 CH2         -9.2736    16.8633    38.4220 CH2           1 RES     
    6154 CH2         -9.9341    17.7217    39.5167 CH2           1 RES     
    6155 CH2        -10.5104    16.8046    40.6114 CH2           1 RES     
    6156 CH3        -11.1409    17.6240    41.6563 CH3           1 RES     
    6157 CH3         37.9386    24.9083    14.2386 CH3           1 RES     
    6158 CH3         38.1296    22.5753    14.4706 CH3           1 RES     
    6159 CH3         39.8976    23.8350    14.2054 CH3           1 RES     
    6160 NL          38.6746    23.7751    14.7067 NL            1 RES     
    6161 CH2         38.9074    23.9397    16.0695 CH2           1 RES     
    6162 CH2         37.4708    23.8647    16.6192 CH2           1 RES     
    6163 OA          37.4961    24.0226    18.0956 OA            1 RES     
    6164 P           37.6439    22.5681    18.7458 P             1 RES     
    6165 OM          36.3554    21.7299    18.3018 OM            1 RES     
    6166 OM          39.0355    21.9702    18.2302 OM            1 RES     
    6167 OA          37.6750    22.6966    20.3403 OA            1 RES     
    6168 CH2         37.8126    21.3314    20.9081 CH2           1 RES     
    6169 CH1         37.2238    21.2198    22.1270 CH1           1 RES     
    6170 OE          36.0418    20.6876    22.8202 OE            1 RES     
    6171 C           35.8781    19.5616    21.8428 C             1 RES     
    6172 O           36.6124    19.3663    20.8756 O             1 RES     
    6173 CH2         34.8805    18.7709    22.4379 CH2           1 RES     
    6174 CH2         34.3166    19.2737    23.7799 CH2           1 RES     
    6175 CH2         33.3853    18.2037    24.3794 CH2           1 RES     
    6176 CH2         32.8214    18.7065    25.7213 CH2           1 RES     
    6177 CH2         31.8901    17.6365    26.3208 CH2           1 RES     
    6178 CH2         31.3262    18.1393    27.6628 CH2           1 RES     
    6179 CH2         30.3949    17.0694    28.2622 CH2           1 RES     
    6180 CH2         29.8310    17.5722    29.6042 CH2           1 RES     
    6181 CH2         28.8997    16.5022    30.2037 CH2           1 RES     
    6182 CH2         28.3358    17.0050    31.5456 CH2           1 RES     
    6183 CH2         27.4045    15.9350    32.1451 CH2           1 RES     
    6184 CH2         26.8406    16.4378    33.4871 CH2           1 RES     
    6185 CH2         25.9093    15.3678    34.0866 CH2           1 RES     
    6186 CH2         25.3454    15.8706    35.4285 CH2           1 RES     
    6187 CH2         24.4140    14.8006    36.0280 CH2           1 RES     
    6188 CH2         23.8502    15.3034    37.3699 CH2           1 RES     
    6189 CH3         22.9612    14.2821    37.9422 CH3           1 RES     
    6190 CH2         37.0992    22.7495    22.0003 CH2           1 RES     
    6191 OE          36.6521    23.1971    23.3210 OE            1 RES     
    6192 C           36.5811    24.6683    23.0373 C             1 RES     
    6193 O           36.8539    25.1829    21.9539 O             1 RES     
    6194 CH2         35.9648    25.1819    24.1910 CH2           1 RES     
    6195 CH2         35.6004    24.1618    25.2857 CH2           1 RES     
    6196 CH2         34.7699    24.8571    26.3804 CH2           1 RES     
    6197 CH2         34.4056    23.8371    27.4751 CH2           1 RES     
    6198 CH2         33.5751    24.5324    28.5698 CH2           1 RES     
    6199 CH2         33.2107    23.5124    29.6645 CH2           1 RES     
    6200 CH2         32.3802    24.2077    30.7591 CH2           1 RES     
    6201 CH2         32.0159    23.1876    31.8538 CH2           1 RES     
    6202 CH2         31.1854    23.8830    32.9485 CH2           1 RES     
    6203 CH2         30.8210    22.8629    34.0432 CH2           1 RES     
    6204 CH2         29.9905    23.5583    35.1379 CH2           1 RES     
    6205 CH2         29.6262    22.5382    36.2326 CH2           1 RES     
    6206 CH2         28.7956    23.2335    37.3273 CH2           1 RES     
    6207 CH2         28.4313    22.2135    38.4220 CH2           1 RES     
    6208 CH2         27.6008    22.9088    39.5167 CH2           1 RES     
    6209 CH2         27.2365    21.8887    40.6114 CH2           1 RES     
    6210 CH3         26.4437    22.5525    41.6563 CH3           1 RES     
    6211 CH3         30.4691    39.8471    14.2386 CH3           1 RES     
    6212 CH3         30.0217    37.5495    14.4706 CH3           1 RES     
    6213 CH3         32.0646    38.2837    14.2054 CH3           1 RES     
    6214 NL          30.8710    38.5570    14.7067 NL            1 RES     
    6215 CH2         31.1397    38.6525    16.0695 CH2           1 RES     
    6216 CH2         29.7364    38.9691    16.6192 CH2           1 RES     
    6217 OA          29.8035    39.1142    18.0956 OA            1 RES     
    6218 P           29.5521    37.6741    18.7458 P             1 RES     
    6219 OM          28.0849    37.2158    18.3018 OM            1 RES     
    6220 OM          30.7300    36.7218    18.2302 OM            1 RES     
    6221 OA          29.6169    37.7894    20.3403 OA            1 RES     
    6222 CH2         29.3798    36.4378    20.9081 CH2           1 RES     
    6223 CH1         28.7829    36.4898    22.1270 CH1           1 RES     
    6224 OE          27.5009    36.2973    22.8202 OE            1 RES     
    6225 C           27.0385    35.2576    21.8428 C             1 RES     
    6226 O           27.6926    34.8708    20.8756 O             1 RES     
    6227 CH2         25.8642    34.7665    22.4379 CH2           1 RES     
    6228 CH2         25.4574    35.4031    23.7799 CH2           1 RES     
    6229 CH2         24.2712    34.6251    24.3794 CH2           1 RES     
    6230 CH2         23.8645    35.2618    25.7213 CH2           1 RES     
    6231 CH2         22.6783    34.4837    26.3208 CH2           1 RES     
    6232 CH2         22.2716    35.1204    27.6628 CH2           1 RES     
    6233 CH2         21.0854    34.3424    28.2622 CH2           1 RES     
    6234 CH2         20.6787    34.9790    29.6042 CH2           1 RES     
    6235 CH2         19.4925    34.2010    30.2037 CH2           1 RES     
    6236 CH2         19.0857    34.8377    31.5456 CH2           1 RES     
    6237 CH2         17.8996    34.0597    32.1451 CH2           1 RES     
    6238 CH2         17.4928    34.6963    33.4871 CH2           1 RES     
    6239 CH2         16.3067    33.9183    34.0866 CH2           1 RES     
    6240 CH2         15.8999    34.5550    35.4285 CH2           1 RES     
    6241 CH2         14.7138    33.7770    36.0280 CH2           1 RES     
    6242 CH2         14.3070    34.4136    37.3699 CH2           1 RES     
    6243 CH3         13.1748    33.6710    37.9422 CH3           1 RES     
    6244 CH2         29.0768    37.9961    22.0003 CH2           1 RES     
    6245 OE          28.7675    38.5480    23.3210 OE            1 RES     
    6246 C           29.0974    39.9835    23.0373 C             1 RES     
    6247 O           29.4993    40.4051    21.9539 O             1 RES     
    6248 CH2         28.6431    40.6447    24.1910 CH2           1 RES     
    6249 CH2         28.0163    39.7613    25.2857 CH2           1 RES     
    6250 CH2         27.4049    40.6555    26.3804 CH2           1 RES     
    6251 CH2         26.7781    39.7721    27.4751 CH2           1 RES     
    6252 CH2         26.1668    40.6662    28.5698 CH2           1 RES     
    6253 CH2         25.5400    39.7829    29.6645 CH2           1 RES     
    6254 CH2         24.9286    40.6770    30.7591 CH2           1 RES     
    6255 CH2         24.3018    39.7936    31.8538 CH2           1 RES     
    6256 CH2         23.6905    40.6878    32.9485 CH2           1 RES     
    6257 CH2         23.0637    39.8044    34.0432 CH2           1 RES     
    6258 CH2         22.4523    40.6986    35.1379 CH2           1 RES     
    6259 CH2         21.8255    39.8152    36.2326 CH2           1 RES     
    6260 CH2         21.2142    40.7093    37.3273 CH2           1 RES     
    6261 CH2         20.5874    39.8260    38.4220 CH2           1 RES     
    6262 CH2         19.9760    40.7201    39.5167 CH2           1 RES     
    6263 CH2         19.3492    39.8367    40.6114 CH2           1 RES     
    6264 CH3         18.7657    40.6902    41.6563 CH3           1 RES     
    6265 CH3          8.0609     9.9694    14.2386 CH3           1 RES     
    6266 CH3          6.7021     8.0634    14.4706 CH3           1 RES     
    6267 CH3          8.8657     7.8856    14.2054 CH3           1 RES     
    6268 NL           7.8924     8.6287    14.7067 NL            1 RES     
    6269 CH2          8.1765     8.6044    16.0695 CH2           1 RES     
    6270 CH2          7.0303     9.4737    16.6192 CH2           1 RES     
    6271 OA           7.1515     9.5779    18.0956 OA            1 RES     
    6272 P            6.3263     8.3712    18.7458 P             1 RES     
    6273 OM           4.8010     8.5616    18.3018 OM            1 RES     
    6274 OM           7.0041     7.0166    18.2302 OM            1 RES     
    6275 OA           6.4330     8.4493    20.3403 OA            1 RES     
    6276 CH2          5.6576     7.3172    20.9081 CH2           1 RES     
    6277 CH1          5.1357     7.6117    22.1270 CH1           1 RES     
    6278 OE           3.8891     7.9674    22.8202 OE            1 RES     
    6279 C            3.0377     7.2125    21.8428 C             1 RES     
    6280 O            3.4729     6.5896    20.8756 O             1 RES     
    6281 CH2          1.7654     7.2517    22.4379 CH2           1 RES     
    6282 CH2          1.6587     7.9997    23.7799 CH2           1 RES     
    6283 CH2          0.2569     7.7827    24.3794 CH2           1 RES     
    6284 CH2          0.1503     8.5306    25.7213 CH2           1 RES     
    6285 CH2         -1.2515     8.3136    26.3208 CH2           1 RES     
    6286 CH2         -1.3582     9.0616    27.6628 CH2           1 RES     
    6287 CH2         -2.7600     8.8446    28.2622 CH2           1 RES     
    6288 CH2         -2.8666     9.5925    29.6042 CH2           1 RES     
    6289 CH2         -4.2684     9.3755    30.2037 CH2           1 RES     
    6290 CH2         -4.3751    10.1235    31.5456 CH2           1 RES     
    6291 CH2         -5.7769     9.9065    32.1451 CH2           1 RES     
    6292 CH2         -5.8835    10.6544    33.4871 CH2           1 RES     
    6293 CH2         -7.2853    10.4374    34.0866 CH2           1 RES     
    6294 CH2         -7.3920    11.1854    35.4285 CH2           1 RES     
    6295 CH2         -8.7938    10.9684    36.0280 CH2           1 RES     
    6296 CH2         -8.9004    11.7163    37.3699 CH2           1 RES     
    6297 CH3        -10.2385    11.5092    37.9422 CH3           1 RES     
    6298 CH2          6.0270     8.8611    22.0003 CH2           1 RES     
    6299 OE           5.9741     9.4915    23.3210 OE            1 RES     
    6300 C            6.8687    10.6616    23.0373 C             1 RES     
    6301 O            7.4091    10.8789    21.9539 O             1 RES     
    6302 CH2          6.7290    11.4516    24.1910 CH2           1 RES     
    6303 CH2          5.7926    10.9070    25.2857 CH2           1 RES     
    6304 CH2          5.6064    11.9741    26.3804 CH2           1 RES     
    6305 CH2          4.6701    11.4296    27.4751 CH2           1 RES     
    6306 CH2          4.4839    12.4966    28.5698 CH2           1 RES     
    6307 CH2          3.5475    11.9521    29.6645 CH2           1 RES     
    6308 CH2          3.3614    13.0191    30.7591 CH2           1 RES     
    6309 CH2          2.4250    12.4746    31.8538 CH2           1 RES     
    6310 CH2          2.2388    13.5416    32.9485 CH2           1 RES     
    6311 CH2          1.3025    12.9971    34.0432 CH2           1 RES     
    6312 CH2          1.1163    14.0641    35.1379 CH2           1 RES     
    6313 CH2          0.1799    13.5196    36.2326 CH2           1 RES     
    6314 CH2         -0.0063    14.5867    37.3273 CH2           1 RES     
    6315 CH2         -0.9426    14.0421    38.4220 CH2           1 RES     
    6316 CH2         -1.1288    15.1092    39.5167 CH2           1 RES     
    6317 CH2         -2.0652    14.5647    40.6114 CH2           1 RES     
    6318 CH3         -2.2429    15.5832    41.6563 CH3           1 RES     
    6319 CH3         30.4691     2.5000    14.2386 CH3           1 RES     
    6320 CH3         29.9328     0.2215    14.4706 CH3           1 RES     
    6321 CH3         32.0027     0.8758    14.2054 CH3           1 RES     
    6322 NL          30.8206     1.1953    14.7067 NL            1 RES     
    6323 CH2         31.0928     1.2802    16.0695 CH2           1 RES     
    6324 CH2         29.7029     1.6511    16.6192 CH2           1 RES     
    6325 OA          29.7756     1.7935    18.0956 OA            1 RES     
    6326 P           29.4685     0.3642    18.7458 P             1 RES     
    6327 OM          27.9845    -0.0368    18.3018 OM            1 RES     
    6328 OM          30.6085    -0.6331    18.2302 OM            1 RES     
    6329 OA          29.5376     0.4769    20.3403 OA            1 RES     
    6330 CH2         29.2483    -0.8645    20.9081 CH2           1 RES     
    6331 CH1         28.6538    -0.7894    22.1270 CH1           1 RES     
    6332 OE          27.3654    -0.9319    22.8202 OE            1 RES     
    6333 C           26.8630    -1.9529    21.8428 C             1 RES     
    6334 O           27.5016    -2.3648    20.8756 O             1 RES     
    6335 CH2         25.6704    -2.3981    22.4379 CH2           1 RES     
    6336 CH2         25.2887    -1.7462    23.7799 CH2           1 RES     
    6337 CH2         24.0732    -2.4775    24.3794 CH2           1 RES     
    6338 CH2         23.6915    -1.8256    25.7213 CH2           1 RES     
    6339 CH2         22.4761    -2.5570    26.3208 CH2           1 RES     
    6340 CH2         22.0943    -1.9050    27.6628 CH2           1 RES     
    6341 CH2         20.8789    -2.6364    28.2622 CH2           1 RES     
    6342 CH2         20.4971    -1.9844    29.6042 CH2           1 RES     
    6343 CH2         19.2817    -2.7158    30.2037 CH2           1 RES     
    6344 CH2         18.8999    -2.0639    31.5456 CH2           1 RES     
    6345 CH2         17.6845    -2.7953    32.1451 CH2           1 RES     
    6346 CH2         17.3027    -2.1433    33.4871 CH2           1 RES     
    6347 CH2         16.0873    -2.8747    34.0866 CH2           1 RES     
    6348 CH2         15.7055    -2.2227    35.4285 CH2           1 RES     
    6349 CH2         14.4901    -2.9541    36.0280 CH2           1 RES     
    6350 CH2         14.1083    -2.3021    37.3699 CH2           1 RES     
    6351 CH3         12.9481    -3.0003    37.9422 CH3           1 RES     
    6352 CH2         29.0060     0.7044    22.0003 CH2           1 RES     
    6353 OE          28.7184     1.2679    23.3210 OE            1 RES     
    6354 C           29.1037     2.6895    23.0373 C             1 RES     
    6355 O           29.5216     3.0951    21.9539 O             1 RES     
    6356 CH2         28.6754     3.3678    24.1910 CH2           1 RES     
    6357 CH2         28.0148     2.5094    25.2857 CH2           1 RES     
    6358 CH2         27.4386     3.4267    26.3804 CH2           1 RES     
    6359 CH2         26.7780     2.5683    27.4751 CH2           1 RES     
    6360 CH2         26.2018     3.4855    28.5698 CH2           1 RES     
    6361 CH2         25.5412     2.6271    29.6645 CH2           1 RES     
    6362 CH2         24.9650     3.5443    30.7591 CH2           1 RES     
    6363 CH2         24.3044     2.6859    31.8538 CH2           1 RES     
    6364 CH2         23.7282     3.6031    32.9485 CH2           1 RES     
    6365 CH2         23.0676     2.7447    34.0432 CH2           1 RES     
    6366 CH2         22.4914     3.6619    35.1379 CH2           1 RES     
    6367 CH2         21.8308     2.8035    36.2326 CH2           1 RES     
    6368 CH2         21.2546     3.7207    37.3273 CH2           1 RES     
    6369 CH2         20.5940     2.8624    38.4220 CH2           1 RES     
    6370 CH2         20.0178     3.7796    39.5167 CH2           1 RES     
    6371 CH2         19.3572     2.9212    40.6114 CH2           1 RES     
    6372 CH3         18.8072     3.7967    41.6563 CH3           1 RES     
    6373 CH3          0.5914    47.3165    14.2386 CH3           1 RES     
    6374 CH3          0.1408    45.0196    14.4706 CH3           1 RES     
    6375 CH3          2.1848    45.7509    14.2054 CH3           1 RES     
    6376 NL           0.9915    46.0259    14.7067 NL            1 RES     
    6377 CH2          1.2603    46.1210    16.0695 CH2           1 RES     
    6378 CH2         -0.1425    46.4396    16.6192 CH2           1 RES     
    6379 OA          -0.0752    46.5846    18.0956 OA            1 RES     
    6380 P           -0.3286    45.1448    18.7458 P             1 RES     
    6381 OM          -1.7965    44.6886    18.3018 OM            1 RES     
    6382 OM           0.8479    44.1909    18.2302 OM            1 RES     
    6383 OA          -0.2637    45.2600    20.3403 OA            1 RES     
    6384 CH2         -0.5026    43.9088    20.9081 CH2           1 RES     
    6385 CH1         -1.0995    43.9615    22.1270 CH1           1 RES     
    6386 OE          -2.3817    43.7709    22.8202 OE            1 RES     
    6387 C           -2.8456    42.7318    21.8428 C             1 RES     
    6388 O           -2.1920    42.3441    20.8756 O             1 RES     
    6389 CH2         -4.0206    42.2423    22.4379 CH2           1 RES     
    6390 CH2         -4.4265    42.8795    23.7799 CH2           1 RES     
    6391 CH2         -5.6137    42.1031    24.3794 CH2           1 RES     
    6392 CH2         -6.0196    42.7404    25.7213 CH2           1 RES     
    6393 CH2         -7.2068    41.9640    26.3208 CH2           1 RES     
    6394 CH2         -7.6127    42.6012    27.6628 CH2           1 RES     
    6395 CH2         -8.7999    41.8249    28.2622 CH2           1 RES     
    6396 CH2         -9.2058    42.4621    29.6042 CH2           1 RES     
    6397 CH2        -10.3930    41.6857    30.2037 CH2           1 RES     
    6398 CH2        -10.7989    42.3230    31.5456 CH2           1 RES     
    6399 CH2        -11.9861    41.5466    32.1451 CH2           1 RES     
    6400 CH2        -12.3920    42.1838    33.4871 CH2           1 RES     
    6401 CH2        -13.5792    41.4075    34.0866 CH2           1 RES     
    6402 CH2        -13.9851    42.0447    35.4285 CH2           1 RES     
    6403 CH2        -15.1723    41.2683    36.0280 CH2           1 RES     
    6404 CH2        -15.5782    41.9055    37.3699 CH2           1 RES     
    6405 CH3        -16.7115    41.1645    37.9422 CH3           1 RES     
    6406 CH2         -0.8035    45.4675    22.0003 CH2           1 RES     
    6407 OE          -1.1120    46.0198    23.3210 OE            1 RES     
    6408 C           -0.7801    47.4549    23.0373 C             1 RES     
    6409 O           -0.3777    47.8758    21.9539 O             1 RES     
    6410 CH2         -1.2335    48.1167    24.1910 CH2           1 RES     
    6411 CH2         -1.8616    47.2341    25.2857 CH2           1 RES     
    6412 CH2         -2.4717    48.1292    26.3804 CH2           1 RES     
    6413 CH2         -3.0997    47.2466    27.4751 CH2           1 RES     
    6414 CH2         -3.7098    48.1416    28.5698 CH2           1 RES     
    6415 CH2         -4.3378    47.2591    29.6645 CH2           1 RES     
    6416 CH2         -4.9479    48.1541    30.7591 CH2           1 RES     
    6417 CH2         -5.5760    47.2716    31.8538 CH2           1 RES     
    6418 CH2         -6.1861    48.1666    32.9485 CH2           1 RES     
    6419 CH2         -6.8141    47.2841    34.0432 CH2           1 RES     
    6420 CH2         -7.4242    48.1791    35.1379 CH2           1 RES     
    6421 CH2         -8.0522    47.2966    36.2326 CH2           1 RES     
    6422 CH2         -8.6623    48.1916    37.3273 CH2           1 RES     
    6423 CH2         -9.2903    47.3091    38.4220 CH2           1 RES     
    6424 CH2         -9.9004    48.2041    39.5167 CH2           1 RES     
    6425 CH2        -10.5285    47.3216    40.6114 CH2           1 RES     
    6426 CH3        -11.1108    48.1759    41.6563 CH3           1 RES     
    6427 CH3          8.0609    54.7860    14.2386 CH3           1 RES     
    6428 CH3          7.0331    52.6829    14.4706 CH3           1 RES     
    6429 CH3          9.1966    52.8624    14.2054 CH3           1 RES     
    6430 NL           8.1146    53.4358    14.7067 NL            1 RES     
    6431 CH2          8.3988    53.4584    16.0695 CH2           1 RES     
    6432 CH2          7.1256    54.1279    16.6192 CH2           1 RES     
    6433 OA           7.2280    54.2506    18.0956 OA            1 RES     
    6434 P            6.6119    52.9249    18.7458 P             1 RES     
    6435 OM           5.0760    52.8626    18.3018 OM            1 RES     
    6436 OM           7.5027    51.6999    18.2302 OM            1 RES     
    6437 OA           6.7043    53.0195    20.3403 OA            1 RES     
    6438 CH2          6.1250    51.7756    20.9081 CH2           1 RES     
    6439 CH1          5.5620    51.9805    22.1270 CH1           1 RES     
    6440 OE           4.2739    52.1269    22.8202 OE            1 RES     
    6441 C            3.5578    51.2426    21.8428 C             1 RES     
    6442 O            4.0893    50.6995    20.8756 O             1 RES     
    6443 CH2          2.2963    51.0726    22.4379 CH2           1 RES     
    6444 CH2          2.0685    51.7929    23.7799 CH2           1 RES     
    6445 CH2          0.7212    51.3490    24.3794 CH2           1 RES     
    6446 CH2          0.4934    52.0693    25.7213 CH2           1 RES     
    6447 CH2         -0.8539    51.6254    26.3208 CH2           1 RES     
    6448 CH2         -1.0817    52.3457    27.6628 CH2           1 RES     
    6449 CH2         -2.4290    51.9017    28.2622 CH2           1 RES     
    6450 CH2         -2.6568    52.6221    29.6042 CH2           1 RES     
    6451 CH2         -4.0041    52.1781    30.2037 CH2           1 RES     
    6452 CH2         -4.2319    52.8985    31.5456 CH2           1 RES     
    6453 CH2         -5.5792    52.4545    32.1451 CH2           1 RES     
    6454 CH2         -5.8071    53.1748    33.4871 CH2           1 RES     
    6455 CH2         -7.1543    52.7309    34.0866 CH2           1 RES     
    6456 CH2         -7.3822    53.4512    35.4285 CH2           1 RES     
    6457 CH2         -8.7294    53.0073    36.0280 CH2           1 RES     
    6458 CH2         -8.9573    53.7276    37.3699 CH2           1 RES     
    6459 CH3        -10.2433    53.3038    37.9422 CH3           1 RES     
    6460 CH2          6.2363    53.3592    22.0003 CH2           1 RES     
    6461 OE           6.0807    53.9723    23.3210 OE            1 RES     
    6462 C            6.7713    55.2733    23.0373 C             1 RES     
    6463 O            7.2687    55.5762    21.9539 O             1 RES     
    6464 CH2          6.5039    56.0296    24.1910 CH2           1 RES     
    6465 CH2          5.6696    55.3389    25.2857 CH2           1 RES     
    6466 CH2          5.3109    56.3610    26.3804 CH2           1 RES     
    6467 CH2          4.4765    55.6703    27.4751 CH2           1 RES     
    6468 CH2          4.1179    56.6923    28.5698 CH2           1 RES     
    6469 CH2          3.2835    56.0016    29.6645 CH2           1 RES     
    6470 CH2          2.9248    57.0237    30.7591 CH2           1 RES     
    6471 CH2          2.0905    56.3329    31.8538 CH2           1 RES     
    6472 CH2          1.7318    57.3550    32.9485 CH2           1 RES     
    6473 CH2          0.8974    56.6643    34.0432 CH2           1 RES     
    6474 CH2          0.5388    57.6863    35.1379 CH2           1 RES     
    6475 CH2         -0.2956    56.9956    36.2326 CH2           1 RES     
    6476 CH2         -0.6543    58.0177    37.3273 CH2           1 RES     
    6477 CH2         -1.4886    57.3270    38.4220 CH2           1 RES     
    6478 CH2         -1.8473    58.3490    39.5167 CH2           1 RES     
    6479 CH2         -2.6817    57.6583    40.6114 CH2           1 RES     
    6480 CH3         -3.0240    58.6339    41.6563 CH3           1 RES     
    6481 CH3         52.8774    32.3777    14.2386 CH3           1 RES     
    6482 CH3         52.1497    30.1529    14.4706 CH3           1 RES     
    6483 CH3         54.2676    30.6292    14.2054 CH3           1 RES     
    6484 NL          53.1169    31.0479    14.7067 NL            1 RES     
    6485 CH2         53.3953    31.1094    16.0695 CH2           1 RES     
    6486 CH2         52.0419    31.5969    16.6192 CH2           1 RES     
    6487 OA          52.1264    31.7326    18.0956 OA            1 RES     
    6488 P           51.6991    30.3345    18.7458 P             1 RES     
    6489 OM          50.1865    30.0610    18.3018 OM            1 RES     
    6490 OM          52.7503    29.2441    18.2302 OM            1 RES     
    6491 OA          51.7776    30.4409    20.3403 OA            1 RES     
    6492 CH2         51.3754    29.1290    20.9081 CH2           1 RES     
    6493 CH1         50.7895    29.2543    22.1270 CH1           1 RES     
    6494 OE          49.4935    29.2216    22.8202 OE            1 RES     
    6495 C           48.9063    28.2470    21.8428 C             1 RES     
    6496 O           49.5076    27.7824    20.8756 O             1 RES     
    6497 CH2         47.6803    27.9046    22.4379 CH2           1 RES     
    6498 CH2         47.3552    28.5866    23.7799 CH2           1 RES     
    6499 CH2         46.0821    27.9610    24.3794 CH2           1 RES     
    6500 CH2         45.7571    28.6430    25.7213 CH2           1 RES     
    6501 CH2         44.4839    28.0174    26.3208 CH2           1 RES     
    6502 CH2         44.1589    28.6994    27.6628 CH2           1 RES     
    6503 CH2         42.8858    28.0738    28.2622 CH2           1 RES     
    6504 CH2         42.5607    28.7558    29.6042 CH2           1 RES     
    6505 CH2         41.2876    28.1303    30.2037 CH2           1 RES     
    6506 CH2         40.9626    28.8123    31.5456 CH2           1 RES     
    6507 CH2         39.6894    28.1867    32.1451 CH2           1 RES     
    6508 CH2         39.3644    28.8687    33.4871 CH2           1 RES     
    6509 CH2         38.0913    28.2431    34.0866 CH2           1 RES     
    6510 CH2         37.7662    28.9251    35.4285 CH2           1 RES     
    6511 CH2         36.4931    28.2995    36.0280 CH2           1 RES     
    6512 CH2         36.1680    28.9815    37.3699 CH2           1 RES     
    6513 CH3         34.9528    28.3844    37.9422 CH3           1 RES     
    6514 CH2         51.2672    30.7128    22.0003 CH2           1 RES     
    6515 OE          51.0284    31.2986    23.3210 OE            1 RES     
    6516 C           51.5330    32.6824    23.0373 C             1 RES     
    6517 O           51.9838    33.0511    21.9539 O             1 RES     
    6518 CH2         51.1638    33.3947    24.1910 CH2           1 RES     
    6519 CH2         50.4327    32.5954    25.2857 CH2           1 RES     
    6520 CH2         49.9365    33.5582    26.3804 CH2           1 RES     
    6521 CH2         49.2054    32.7590    27.4751 CH2           1 RES     
    6522 CH2         48.7091    33.7218    28.5698 CH2           1 RES     
    6523 CH2         47.9780    32.9226    29.6645 CH2           1 RES     
    6524 CH2         47.4818    33.8854    30.7591 CH2           1 RES     
    6525 CH2         46.7507    33.0862    31.8538 CH2           1 RES     
    6526 CH2         46.2544    34.0490    32.9485 CH2           1 RES     
    6527 CH2         45.5233    33.2498    34.0432 CH2           1 RES     
    6528 CH2         45.0271    34.2126    35.1379 CH2           1 RES     
    6529 CH2         44.2960    33.4133    36.2326 CH2           1 RES     
    6530 CH2         43.7998    34.3761    37.3273 CH2           1 RES     
    6531 CH2         43.0687    33.5769    38.4220 CH2           1 RES     
    6532 CH2         42.5724    34.5397    39.5167 CH2           1 RES     
    6533 CH2         41.8413    33.7405    40.6114 CH2           1 RES     
    6534 CH3         41.3676    34.6595    41.6563 CH3           1 RES     
    6535 CH3         37.9386    54.7860    14.2386 CH3           1 RES     
    6536 CH3         38.3887    52.4889    14.4706 CH3           1 RES     
    6537 CH3         40.0052    53.9380    14.2054 CH3           1 RES     
    6538 NL          38.7964    53.7420    14.7067 NL            1 RES     
    6539 CH2         39.0094    53.9315    16.0695 CH2           1 RES     
    6540 CH2         37.5902    53.6968    16.6192 CH2           1 RES     
    6541 OA          37.5977    53.8564    18.0956 OA            1 RES     
    6542 P           37.9068    52.4276    18.7458 P             1 RES     
    6543 OM          36.7199    51.4508    18.3018 OM            1 RES     
    6544 OM          39.3565    51.9886    18.2302 OM            1 RES     
    6545 OA          37.9234    52.5587    20.3403 OA            1 RES     
    6546 CH2         38.2125    51.2174    20.9081 CH2           1 RES     
    6547 CH1         37.6399    51.0408    22.1270 CH1           1 RES     
    6548 OE          36.5246    50.3800    22.8202 OE            1 RES     
    6549 C           36.4875    49.2428    21.8428 C             1 RES     
    6550 O           37.2391    49.1306    20.8756 O             1 RES     
    6551 CH2         35.5844    48.3457    22.4379 CH2           1 RES     
    6552 CH2         34.9679    48.7825    23.7799 CH2           1 RES     
    6553 CH2         34.1618    47.6152    24.3794 CH2           1 RES     
    6554 CH2         33.5453    48.0520    25.7213 CH2           1 RES     
    6555 CH2         32.7392    46.8848    26.3208 CH2           1 RES     
    6556 CH2         32.1227    47.3215    27.6628 CH2           1 RES     
    6557 CH2         31.3166    46.1543    28.2622 CH2           1 RES     
    6558 CH2         30.7001    46.5910    29.6042 CH2           1 RES     
    6559 CH2         29.8940    45.4238    30.2037 CH2           1 RES     
    6560 CH2         29.2776    45.8606    31.5456 CH2           1 RES     
    6561 CH2         28.4715    44.6933    32.1451 CH2           1 RES     
    6562 CH2         27.8550    45.1301    33.4871 CH2           1 RES     
    6563 CH2         27.0489    43.9629    34.0866 CH2           1 RES     
    6564 CH2         26.4324    44.3996    35.4285 CH2           1 RES     
    6565 CH2         25.6263    43.2324    36.0280 CH2           1 RES     
    6566 CH2         25.0098    43.6691    37.3699 CH2           1 RES     
    6567 CH3         24.2403    42.5550    37.9422 CH3           1 RES     
    6568 CH2         37.3453    52.5471    22.0003 CH2           1 RES     
    6569 OE          36.8510    52.9420    23.3210 OE            1 RES     
    6570 C           36.6163    54.3961    23.0373 C             1 RES     
    6571 O           36.8300    54.9378    21.9539 O             1 RES     
    6572 CH2         35.9466    54.8376    24.1910 CH2           1 RES     
    6573 CH2         35.6983    53.7833    25.2857 CH2           1 RES     
    6574 CH2         34.7954    54.3816    26.3804 CH2           1 RES     
    6575 CH2         34.5472    53.3273    27.4751 CH2           1 RES     
    6576 CH2         33.6443    53.9256    28.5698 CH2           1 RES     
    6577 CH2         33.3960    52.8713    29.6645 CH2           1 RES     
    6578 CH2         32.4931    53.4696    30.7591 CH2           1 RES     
    6579 CH2         32.2448    52.4153    31.8538 CH2           1 RES     
    6580 CH2         31.3419    53.0136    32.9485 CH2           1 RES     
    6581 CH2         31.0937    51.9592    34.0432 CH2           1 RES     
    6582 CH2         30.1908    52.5576    35.1379 CH2           1 RES     
    6583 CH2         29.9425    51.5032    36.2326 CH2           1 RES     
    6584 CH2         29.0396    52.1015    37.3273 CH2           1 RES     
    6585 CH2         28.7914    51.0472    38.4220 CH2           1 RES     
    6586 CH2         27.8884    51.6455    39.5167 CH2           1 RES     
    6587 CH2         27.6402    50.5912    40.6114 CH2           1 RES     
    6588 CH3         26.7783    51.1623    41.6563 CH3           1 RES     
    6589 CH3         22.9997    17.4388    14.2386 CH3           1 RES     
    6590 CH3         22.7000    15.1173    14.4706 CH3           1 RES     
    6591 CH3         24.6919    15.9806    14.2054 CH3           1 RES     
    6592 NL          23.4832    16.1771    14.7067 NL            1 RES     
    6593 CH2         23.7452    16.2895    16.0695 CH2           1 RES     
    6594 CH2         22.3246    16.5158    16.6192 CH2           1 RES     
    6595 OA          22.3823    16.6649    18.0956 OA            1 RES     
    6596 P           22.2235    15.2116    18.7458 P             1 RES     
    6597 OM          20.7885    14.6605    18.3018 OM            1 RES     
    6598 OM          23.4598    14.3366    18.2302 OM            1 RES     
    6599 OA          22.2807    15.3308    20.3403 OA            1 RES     
    6600 CH2         22.1305    13.9669    20.9081 CH2           1 RES     
    6601 CH1         21.5314    13.9806    22.1270 CH1           1 RES     
    6602 OE          20.2644    13.7066    22.8202 OE            1 RES     
    6603 C           19.8694    12.6395    21.8428 C             1 RES     
    6604 O           20.5469    12.2953    20.8756 O             1 RES     
    6605 CH2         18.7289    12.0743    22.4379 CH2           1 RES     
    6606 CH2         18.2822    12.6836    23.7799 CH2           1 RES     
    6607 CH2         17.1482    11.8314    24.3794 CH2           1 RES     
    6608 CH2         16.7016    12.4407    25.7213 CH2           1 RES     
    6609 CH2         15.5676    11.5885    26.3208 CH2           1 RES     
    6610 CH2         15.1210    12.1979    27.6628 CH2           1 RES     
    6611 CH2         13.9870    11.3456    28.2622 CH2           1 RES     
    6612 CH2         13.5404    11.9550    29.6042 CH2           1 RES     
    6613 CH2         12.4064    11.1028    30.2037 CH2           1 RES     
    6614 CH2         11.9598    11.7121    31.5456 CH2           1 RES     
    6615 CH2         10.8258    10.8599    32.1451 CH2           1 RES     
    6616 CH2         10.3791    11.4693    33.4871 CH2           1 RES     
    6617 CH2          9.2452    10.6170    34.0866 CH2           1 RES     
    6618 CH2          8.7985    11.2264    35.4285 CH2           1 RES     
    6619 CH2          7.6645    10.3742    36.0280 CH2           1 RES     
    6620 CH2          7.2179    10.9835    37.3699 CH2           1 RES     
    6621 CH3          6.1355    10.1700    37.9422 CH3           1 RES     
    6622 CH2         21.7285    15.5027    22.0003 CH2           1 RES     
    6623 OE          21.3846    16.0336    23.3210 OE            1 RES     
    6624 C           21.6220    17.4873    23.0373 C             1 RES     
    6625 O           21.9962    17.9336    21.9539 O             1 RES     
    6626 CH2         21.1264    18.1181    24.1910 CH2           1 RES     
    6627 CH2         20.5573    17.1964    25.2857 CH2           1 RES     
    6628 CH2         19.8901    18.0497    26.3804 CH2           1 RES     
    6629 CH2         19.3210    17.1281    27.4751 CH2           1 RES     
    6630 CH2         18.6538    17.9813    28.5698 CH2           1 RES     
    6631 CH2         18.0847    17.0597    29.6645 CH2           1 RES     
    6632 CH2         17.4175    17.9129    30.7591 CH2           1 RES     
    6633 CH2         16.8484    16.9913    31.8538 CH2           1 RES     
    6634 CH2         16.1812    17.8446    32.9485 CH2           1 RES     
    6635 CH2         15.6121    16.9229    34.0432 CH2           1 RES     
    6636 CH2         14.9449    17.7762    35.1379 CH2           1 RES     
    6637 CH2         14.3758    16.8545    36.2326 CH2           1 RES     
    6638 CH2         13.7086    17.7078    37.3273 CH2           1 RES     
    6639 CH2         13.1395    16.7862    38.4220 CH2           1 RES     
    6640 CH2         12.4723    17.6394    39.5167 CH2           1 RES     
    6641 CH2         11.9032    16.7178    40.6114 CH2           1 RES     
    6642 CH3         11.2663    17.5323    41.6563 CH3           1 RES     
    6643 CH3         15.5303     9.9694    14.2386 CH3           1 RES     
    6644 CH3         15.3416     7.6363    14.4706 CH3           1 RES     
    6645 CH3         17.2900     8.5935    14.2054 CH3           1 RES     
    6646 NL          16.0734     8.7322    14.7067 NL            1 RES     
    6647 CH2         16.3298     8.8569    16.0695 CH2           1 RES     
    6648 CH2         14.9000     9.0153    16.6192 CH2           1 RES     
    6649 OA          14.9505     9.1669    18.0956 OA            1 RES     
    6650 P           14.8611     7.7077    18.7458 P             1 RES     
    6651 OM          13.4540     7.0888    18.3018 OM            1 RES     
    6652 OM          16.1377     6.8926    18.2302 OM            1 RES     
    6653 OA          14.9126     7.8295    20.3403 OA            1 RES     
    6654 CH2         14.8276     6.4600    20.9081 CH2           1 RES     
    6655 CH1         14.2286     6.4451    22.1270 CH1           1 RES     
    6656 OE          12.9761     6.1110    22.8202 OE            1 RES     
    6657 C           12.6324     5.0263    21.8428 C             1 RES     
    6658 O           13.3255     4.7148    20.8756 O             1 RES     
    6659 CH2         11.5201     4.4073    22.4379 CH2           1 RES     
    6660 CH2         11.0449     4.9947    23.7799 CH2           1 RES     
    6661 CH2          9.9528     4.0893    24.3794 CH2           1 RES     
    6662 CH2          9.4777     4.6767    25.7213 CH2           1 RES     
    6663 CH2          8.3856     3.7714    26.3208 CH2           1 RES     
    6664 CH2          7.9104     4.3587    27.6628 CH2           1 RES     
    6665 CH2          6.8184     3.4534    28.2622 CH2           1 RES     
    6666 CH2          6.3432     4.0408    29.6042 CH2           1 RES     
    6667 CH2          5.2511     3.1355    30.2037 CH2           1 RES     
    6668 CH2          4.7760     3.7228    31.5456 CH2           1 RES     
    6669 CH2          3.6839     2.8175    32.1451 CH2           1 RES     
    6670 CH2          3.2087     3.4049    33.4871 CH2           1 RES     
    6671 CH2          2.1167     2.4995    34.0866 CH2           1 RES     
    6672 CH2          1.6415     3.0869    35.4285 CH2           1 RES     
    6673 CH2          0.5494     2.1816    36.0280 CH2           1 RES     
    6674 CH2          0.0742     2.7689    37.3699 CH2           1 RES     
    6675 CH3         -0.9682     1.9048    37.9422 CH3           1 RES     
    6676 CH2         14.3529     7.9748    22.0003 CH2           1 RES     
    6677 OE          13.9840     8.4888    23.3210 OE            1 RES     
    6678 C           14.1519     9.9521    23.0373 C             1 RES     
    6679 O           14.5043    10.4158    21.9539 O             1 RES     
    6680 CH2         13.6267    10.5586    24.1910 CH2           1 RES     
    6681 CH2         13.1022     9.6108    25.2857 CH2           1 RES     
    6682 CH2         12.3951    10.4313    26.3804 CH2           1 RES     
    6683 CH2         11.8706     9.4836    27.4751 CH2           1 RES     
    6684 CH2         11.1634    10.3041    28.5698 CH2           1 RES     
    6685 CH2         10.6390     9.3563    29.6645 CH2           1 RES     
    6686 CH2          9.9318    10.1768    30.7591 CH2           1 RES     
    6687 CH2          9.4073     9.2291    31.8538 CH2           1 RES     
    6688 CH2          8.7002    10.0496    32.9485 CH2           1 RES     
    6689 CH2          8.1757     9.1018    34.0432 CH2           1 RES     
    6690 CH2          7.4685     9.9223    35.1379 CH2           1 RES     
    6691 CH2          6.9441     8.9746    36.2326 CH2           1 RES     
    6692 CH2          6.2369     9.7951    37.3273 CH2           1 RES     
    6693 CH2          5.7124     8.8473    38.4220 CH2           1 RES     
    6694 CH2          5.0053     9.6678    39.5167 CH2           1 RES     
    6695 CH2          4.4808     8.7201    40.6114 CH2           1 RES     
    6696 CH3          3.8058     9.5033    41.6563 CH3           1 RES     
    6697 CH3         15.5303    47.3165    14.2386 CH3           1 RES     
    6698 CH3         15.8901    45.0036    14.4706 CH3           1 RES     
    6699 CH3         17.5621    46.3882    14.2054 CH3           1 RES     
    6700 NL          16.3466    46.2398    14.7067 NL            1 RES     
    6701 CH2         16.5668    46.4208    16.0695 CH2           1 RES     
    6702 CH2         15.1395    46.2418    16.6192 CH2           1 RES     
    6703 OA          15.1533    46.4011    18.0956 OA            1 RES     
    6704 P           15.4062    44.9612    18.7458 P             1 RES     
    6705 OM          14.1819    44.0317    18.3018 OM            1 RES     
    6706 OM          16.8375    44.4658    18.2302 OM            1 RES     
    6707 OA          15.4279    45.0916    20.3403 OA            1 RES     
    6708 CH2         15.6642    43.7400    20.9081 CH2           1 RES     
    6709 CH1         15.0851    43.5860    22.1270 CH1           1 RES     
    6710 OE          13.9448    42.9694    22.8202 OE            1 RES     
    6711 C           13.8632    41.8345    21.8428 C             1 RES     
    6712 O           14.6098    41.6929    20.8756 O             1 RES     
    6713 CH2         12.9256    40.9735    22.4379 CH2           1 RES     
    6714 CH2         12.3267    41.4340    23.7799 CH2           1 RES     
    6715 CH2         11.4755    40.2993    24.3794 CH2           1 RES     
    6716 CH2         10.8766    40.7599    25.7213 CH2           1 RES     
    6717 CH2         10.0253    39.6251    26.3208 CH2           1 RES     
    6718 CH2          9.4265    40.0857    27.6628 CH2           1 RES     
    6719 CH2          8.5752    38.9510    28.2622 CH2           1 RES     
    6720 CH2          7.9763    39.4115    29.6042 CH2           1 RES     
    6721 CH2          7.1251    38.2768    30.2037 CH2           1 RES     
    6722 CH2          6.5262    38.7373    31.5456 CH2           1 RES     
    6723 CH2          5.6750    37.6026    32.1451 CH2           1 RES     
    6724 CH2          5.0761    38.0632    33.4871 CH2           1 RES     
    6725 CH2          4.2249    36.9284    34.0866 CH2           1 RES     
    6726 CH2          3.6260    37.3890    35.4285 CH2           1 RES     
    6727 CH2          2.7748    36.2542    36.0280 CH2           1 RES     
    6728 CH2          2.1759    36.7148    37.3699 CH2           1 RES     
    6729 CH3          1.3634    35.6316    37.9422 CH3           1 RES     
    6730 CH2         14.8497    45.1026    22.0003 CH2           1 RES     
    6731 OE          14.3713    45.5166    23.3210 OE            1 RES     
    6732 C           14.1938    46.9787    23.0373 C             1 RES     
    6733 O           14.4285    47.5117    21.9539 O             1 RES     
    6734 CH2         13.5419    47.4462    24.1910 CH2           1 RES     
    6735 CH2         13.2525    46.4024    25.2857 CH2           1 RES     
    6736 CH2         12.3737    47.0357    26.3804 CH2           1 RES     
    6737 CH2         12.0844    45.9918    27.4751 CH2           1 RES     
    6738 CH2         11.2056    46.6251    28.5698 CH2           1 RES     
    6739 CH2         10.9162    45.5813    29.6645 CH2           1 RES     
    6740 CH2         10.0374    46.2145    30.7591 CH2           1 RES     
    6741 CH2          9.7481    45.1707    31.8538 CH2           1 RES     
    6742 CH2          8.8693    45.8040    32.9485 CH2           1 RES     
    6743 CH2          8.5799    44.7602    34.0432 CH2           1 RES     
    6744 CH2          7.7011    45.3934    35.1379 CH2           1 RES     
    6745 CH2          7.4118    44.3496    36.2326 CH2           1 RES     
    6746 CH2          6.5330    44.9828    37.3273 CH2           1 RES     
    6747 CH2          6.2436    43.9390    38.4220 CH2           1 RES     
    6748 CH2          5.3648    44.5723    39.5167 CH2           1 RES     
    6749 CH2          5.0755    43.5285    40.6114 CH2           1 RES     
    6750 CH3          4.2366    44.1329    41.6563 CH3           1 RES     
    6751 CH3         30.4691    54.7860    14.2386 CH3           1 RES     
    6752 CH3         31.0299    52.5134    14.4706 CH3           1 RES     
    6753 CH3         32.5743    54.0389    14.2054 CH3           1 RES     
    6754 NL          31.3765    53.7847    14.7067 NL            1 RES     
    6755 CH2         31.5801    53.9843    16.0695 CH2           1 RES     
    6756 CH2         30.1738    53.6812    16.6192 CH2           1 RES     
    6757 OA          30.1736    53.8410    18.0956 OA            1 RES     
    6758 P           30.5515    52.4288    18.7458 P             1 RES     
    6759 OM          29.4132    51.3958    18.3018 OM            1 RES     
    6760 OM          32.0207    52.0605    18.2302 OM            1 RES     
    6761 OA          30.5617    52.5606    20.3403 OA            1 RES     
    6762 CH2         30.9153    51.2348    20.9081 CH2           1 RES     
    6763 CH1         30.3519    51.0308    22.1270 CH1           1 RES     
    6764 OE          29.2699    50.3168    22.8202 OE            1 RES     
    6765 C           29.2878    49.1791    21.8428 C             1 RES     
    6766 O           30.0440    49.1034    20.8756 O             1 RES     
    6767 CH2         28.4291    48.2394    22.4379 CH2           1 RES     
    6768 CH2         27.7923    48.6458    23.7799 CH2           1 RES     
    6769 CH2         27.0435    47.4410    24.3794 CH2           1 RES     
    6770 CH2         26.4067    47.8474    25.7213 CH2           1 RES     
    6771 CH2         25.6580    46.6426    26.3208 CH2           1 RES     
    6772 CH2         25.0211    47.0490    27.6628 CH2           1 RES     
    6773 CH2         24.2724    45.8442    28.2622 CH2           1 RES     
    6774 CH2         23.6355    46.2506    29.6042 CH2           1 RES     
    6775 CH2         22.8868    45.0457    30.2037 CH2           1 RES     
    6776 CH2         22.2499    45.4522    31.5456 CH2           1 RES     
    6777 CH2         21.5012    44.2473    32.1451 CH2           1 RES     
    6778 CH2         20.8643    44.6538    33.4871 CH2           1 RES     
    6779 CH2         20.1156    43.4489    34.0866 CH2           1 RES     
    6780 CH2         19.4787    43.8553    35.4285 CH2           1 RES     
    6781 CH2         18.7300    42.6505    36.0280 CH2           1 RES     
    6782 CH2         18.0931    43.0569    37.3699 CH2           1 RES     
    6783 CH3         17.3784    41.9069    37.9422 CH3           1 RES     
    6784 CH2         29.9848    52.5210    22.0003 CH2           1 RES     
    6785 OE          29.4721    52.8915    23.3210 OE            1 RES     
    6786 C           29.1673    54.3326    23.0373 C             1 RES     
    6787 O           29.3545    54.8841    21.9539 O             1 RES     
    6788 CH2         28.4770    54.7412    24.1910 CH2           1 RES     
    6789 CH2         28.2800    53.6761    25.2857 CH2           1 RES     
    6790 CH2         27.3492    54.2301    26.3804 CH2           1 RES     
    6791 CH2         27.1523    53.1650    27.4751 CH2           1 RES     
    6792 CH2         26.2215    53.7189    28.5698 CH2           1 RES     
    6793 CH2         26.0245    52.6538    29.6645 CH2           1 RES     
    6794 CH2         25.0937    53.2078    30.7591 CH2           1 RES     
    6795 CH2         24.8967    52.1427    31.8538 CH2           1 RES     
    6796 CH2         23.9659    52.6966    32.9485 CH2           1 RES     
    6797 CH2         23.7690    51.6315    34.0432 CH2           1 RES     
    6798 CH2         22.8382    52.1855    35.1379 CH2           1 RES     
    6799 CH2         22.6412    51.1204    36.2326 CH2           1 RES     
    6800 CH2         21.7104    51.6743    37.3273 CH2           1 RES     
    6801 CH2         21.5134    50.6092    38.4220 CH2           1 RES     
    6802 CH2         20.5826    51.1632    39.5167 CH2           1 RES     
    6803 CH2         20.3857    50.0981    40.6114 CH2           1 RES     
    6804 CH3         19.4972    50.6269    41.6563 CH3           1 RES     
    6805 CH3         52.8774    39.8471    14.2386 CH3           1 RES     
    6806 CH3         52.9629    37.5079    14.4706 CH3           1 RES     
    6807 CH3         54.7860    38.6864    14.2054 CH3           1 RES     
    6808 NL          53.5615    38.6819    14.7067 NL            1 RES     
    6809 CH2         53.8015    38.8358    16.0695 CH2           1 RES     
    6810 CH2         52.3630    38.8258    16.6192 CH2           1 RES     
    6811 OA          52.3954    38.9823    18.0956 OA            1 RES     
    6812 P           52.4773    37.5227    18.7458 P             1 RES     
    6813 OM          51.1523    36.7435    18.3018 OM            1 RES     
    6814 OM          53.8405    36.8625    18.2302 OM            1 RES     
    6815 OA          52.5142    37.6497    20.3403 OA            1 RES     
    6816 CH2         52.5900    36.2796    20.9081 CH2           1 RES     
    6817 CH1         51.9968    36.1948    22.1270 CH1           1 RES     
    6818 OE          50.7919    35.7165    22.8202 OE            1 RES     
    6819 C           50.5774    34.5990    21.8428 C             1 RES     
    6820 O           51.3022    34.3707    20.8756 O             1 RES     
    6821 CH2         49.5452    33.8542    22.4379 CH2           1 RES     
    6822 CH2         49.0046    34.3820    23.7799 CH2           1 RES     
    6823 CH2         48.0259    33.3551    24.3794 CH2           1 RES     
    6824 CH2         47.4852    33.8829    25.7213 CH2           1 RES     
    6825 CH2         46.5065    32.8561    26.3208 CH2           1 RES     
    6826 CH2         45.9659    33.3839    27.6628 CH2           1 RES     
    6827 CH2         44.9872    32.3570    28.2622 CH2           1 RES     
    6828 CH2         44.4466    32.8848    29.6042 CH2           1 RES     
    6829 CH2         43.4679    31.8580    30.2037 CH2           1 RES     
    6830 CH2         42.9273    32.3858    31.5456 CH2           1 RES     
    6831 CH2         41.9486    31.3589    32.1451 CH2           1 RES     
    6832 CH2         41.4080    31.8867    33.4871 CH2           1 RES     
    6833 CH2         40.4293    30.8599    34.0866 CH2           1 RES     
    6834 CH2         39.8887    31.3877    35.4285 CH2           1 RES     
    6835 CH2         38.9100    30.3608    36.0280 CH2           1 RES     
    6836 CH2         38.3694    30.8886    37.3699 CH2           1 RES     
    6837 CH3         37.4352    29.9085    37.9422 CH3           1 RES     
    6838 CH2         51.9413    37.7285    22.0003 CH2           1 RES     
    6839 OE          51.5149    38.1958    23.3210 OE            1 RES     
    6840 C           51.5105    39.6688    23.0373 C             1 RES     
    6841 O           51.8062    40.1705    21.9539 O             1 RES     
    6842 CH2         50.9180    40.2096    24.1910 CH2           1 RES     
    6843 CH2         50.5080    39.2071    25.2857 CH2           1 RES     
    6844 CH2         49.7097    39.9392    26.3804 CH2           1 RES     
    6845 CH2         49.2997    38.9367    27.4751 CH2           1 RES     
    6846 CH2         48.5014    39.6688    28.5698 CH2           1 RES     
    6847 CH2         48.0913    38.6663    29.6645 CH2           1 RES     
    6848 CH2         47.2931    39.3984    30.7591 CH2           1 RES     
    6849 CH2         46.8830    38.3958    31.8538 CH2           1 RES     
    6850 CH2         46.0848    39.1280    32.9485 CH2           1 RES     
    6851 CH2         45.6747    38.1254    34.0432 CH2           1 RES     
    6852 CH2         44.8765    38.8576    35.1379 CH2           1 RES     
    6853 CH2         44.4664    37.8550    36.2326 CH2           1 RES     
    6854 CH2         43.6682    38.5872    37.3273 CH2           1 RES     
    6855 CH2         43.2581    37.5846    38.4220 CH2           1 RES     
    6856 CH2         42.4599    38.3168    39.5167 CH2           1 RES     
    6857 CH2         42.0498    37.3142    40.6114 CH2           1 RES     
    6858 CH3         41.2878    38.0131    41.6563 CH3           1 RES     
    6859 CH3         30.4691     9.9694    14.2386 CH3           1 RES     
    6860 CH3         29.8424     7.7141    14.4706 CH3           1 RES     
    6861 CH3         31.9367     8.2853    14.2054 CH3           1 RES     
    6862 NL          30.7683     8.6517    14.7067 NL            1 RES     
    6863 CH2         31.0436     8.7257    16.0695 CH2           1 RES     
    6864 CH2         29.6696     9.1518    16.6192 CH2           1 RES     
    6865 OA          29.7479     9.2911    18.0956 OA            1 RES     
    6866 P           29.3841     7.8752    18.7458 P             1 RES     
    6867 OM          27.8853     7.5338    18.3018 OM            1 RES     
    6868 OM          30.4833     6.8333    18.2302 OM            1 RES     
    6869 OA          29.4577     7.9851    20.3403 OA            1 RES     
    6870 CH2         29.1150     6.6564    20.9081 CH2           1 RES     
    6871 CH1         28.5240     6.7551    22.1270 CH1           1 RES     
    6872 OE          27.2309     6.6641    22.8202 OE            1 RES     
    6873 C           26.6882     5.6640    21.8428 C             1 RES     
    6874 O           27.3098     5.2269    20.8756 O             1 RES     
    6875 CH2         25.4788     5.2667    22.4379 CH2           1 RES     
    6876 CH2         25.1234     5.9334    23.7799 CH2           1 RES     
    6877 CH2         23.8797     5.2511    24.3794 CH2           1 RES     
    6878 CH2         23.5243     5.9177    25.7213 CH2           1 RES     
    6879 CH2         22.2806     5.2354    26.3208 CH2           1 RES     
    6880 CH2         21.9252     5.9021    27.6628 CH2           1 RES     
    6881 CH2         20.6815     5.2198    28.2622 CH2           1 RES     
    6882 CH2         20.3261     5.8865    29.6042 CH2           1 RES     
    6883 CH2         19.0824     5.2042    30.2037 CH2           1 RES     
    6884 CH2         18.7270     5.8709    31.5456 CH2           1 RES     
    6885 CH2         17.4834     5.1886    32.1451 CH2           1 RES     
    6886 CH2         17.1279     5.8552    33.4871 CH2           1 RES     
    6887 CH2         15.8843     5.1729    34.0866 CH2           1 RES     
    6888 CH2         15.5288     5.8396    35.4285 CH2           1 RES     
    6889 CH2         14.2852     5.1573    36.0280 CH2           1 RES     
    6890 CH2         13.9297     5.8240    37.3699 CH2           1 RES     
    6891 CH3         12.7426     5.1727    37.9422 CH3           1 RES     
    6892 CH2         28.9355     8.2337    22.0003 CH2           1 RES     
    6893 OE          28.6706     8.8082    23.3210 OE            1 RES     
    6894 C           29.1124    10.2133    23.0373 C             1 RES     
    6895 O           29.5461    10.6019    21.9539 O             1 RES     
    6896 CH2         28.7115    10.9082    24.1910 CH2           1 RES     
    6897 CH2         28.0171    10.0768    25.2857 CH2           1 RES     
    6898 CH2         27.4780    11.0163    26.3804 CH2           1 RES     
    6899 CH2         26.7836    10.1849    27.4751 CH2           1 RES     
    6900 CH2         26.2445    11.1244    28.5698 CH2           1 RES     
    6901 CH2         25.5502    10.2931    29.6645 CH2           1 RES     
    6902 CH2         25.0111    11.2325    30.7591 CH2           1 RES     
    6903 CH2         24.3167    10.4012    31.8538 CH2           1 RES     
    6904 CH2         23.7776    11.3406    32.9485 CH2           1 RES     
    6905 CH2         23.0832    10.5093    34.0432 CH2           1 RES     
    6906 CH2         22.5441    11.4488    35.1379 CH2           1 RES     
    6907 CH2         21.8498    10.6174    36.2326 CH2           1 RES     
    6908 CH2         21.3107    11.5569    37.3273 CH2           1 RES     
    6909 CH2         20.6163    10.7256    38.4220 CH2           1 RES     
    6910 CH2         20.0772    11.6650    39.5167 CH2           1 RES     
    6911 CH2         19.3829    10.8337    40.6114 CH2           1 RES     
    6912 CH3         18.8682    11.7304    41.6563 CH3           1 RES     
    6913 OW          21.3090    34.3980    67.1300 OW            1 RES     
    6914 HW1         21.7840    35.1980    67.4940 HW1           1 RES     
    6915 HW2         20.3250    34.5740    67.1070 HW2           1 RES     
    6916 OW          17.2030    25.0770    76.0200 OW            1 RES     
    6917 HW1         17.8110    24.3200    75.7830 HW1           1 RES     
    6918 HW2         17.2700    25.2650    77.0000 HW2           1 RES     
    6919 OW           7.0170    20.2800    73.0130 OW            1 RES     
    6920 HW1          6.8810    19.8830    73.9200 HW1           1 RES     
    6921 HW2          7.1510    21.2680    73.0970 HW2           1 RES     
    6922 OW          12.6010    41.8950    71.7150 OW            1 RES     
    6923 HW1         12.8620    42.8570    71.6520 HW1           1 RES     
    6924 HW2         13.3930    41.3520    71.9950 HW2           1 RES     
    6925 OW          21.6080    39.3010    76.6550 OW            1 RES     
    6926 HW1         21.4150    40.2670    76.4900 HW1           1 RES     
    6927 HW2         21.0070    38.7380    76.0870 HW2           1 RES     
    6928 OW          53.9020     9.9800    76.4690 OW            1 RES     
    6929 HW1         53.5070     9.8730    77.3810 HW1           1 RES     
    6930 HW2         53.2980     9.5610    75.7910 HW2           1 RES     
    6931 OW          38.0720    54.1430    67.6780 OW            1 RES     
    6932 HW1         38.7520    54.6010    67.1070 HW1           1 RES     
    6933 HW2         37.7620    54.7680    68.3950 HW2           1 RES     
    6934 OW          27.3030    12.2350    78.6910 OW            1 RES     
    6935 HW1         28.0210    11.5460    78.6010 HW1           1 RES     
    6936 HW2         26.5310    11.9910    78.1040 HW2           1 RES     
    6937 OW           2.9170    50.5920    73.2390 OW            1 RES     
    6938 HW1          3.8590    50.2580    73.2450 HW1           1 RES     
    6939 HW2          2.9170    51.5920    73.2240 HW2           1 RES     
    6940 OW          19.7760    30.7370    72.3950 OW            1 RES     
    6941 HW1         19.5100    30.4310    71.4820 HW1           1 RES     
    6942 HW2         19.1670    30.3280    73.0750 HW2           1 RES     
    6943 OW          50.6740    14.4830    76.4850 OW            1 RES     
    6944 HW1         51.4650    13.8720    76.4990 HW1           1 RES     
    6945 HW2         49.8510    13.9710    76.7330 HW2           1 RES     
    6946 OW          14.1080    31.9790    75.5580 OW            1 RES     
    6947 HW1         13.9520    32.9400    75.7830 HW1           1 RES     
    6948 HW2         14.9500    31.6660    75.9970 HW2           1 RES     
    6949 OW          31.2330     8.1830    69.8170 OW            1 RES     
    6950 HW1         31.9020     7.9760    70.5300 HW1           1 RES     
    6951 HW2         31.3580     7.5560    69.0480 HW2           1 RES     
    6952 OW          44.1890    50.3710    73.5110 OW            1 RES     
    6953 HW1         44.7850    49.5710    73.4460 HW1           1 RES     
    6954 HW2         44.6790    51.1790    73.1850 HW2           1 RES     
    6955 OW          45.2610    50.5620    70.8830 OW            1 RES     
    6956 HW1         46.2570    50.6310    70.8260 HW1           1 RES     
    6957 HW2         44.8490    51.4170    70.5660 HW2           1 RES     
    6958 OW          46.6270    41.2310    69.8760 OW            1 RES     
    6959 HW1         46.8810    40.2680    69.8010 HW1           1 RES     
    6960 HW2         47.4480    41.7830    70.0210 HW2           1 RES     
    6961 OW          25.9590    28.6410    67.1190 OW            1 RES     
    6962 HW1         26.8340    29.1240    67.1070 HW1           1 RES     
    6963 HW2         26.1220    27.6550    67.1540 HW2           1 RES     
    6964 OW          24.1490    44.9140    75.9200 OW            1 RES     
    6965 HW1         24.1630    44.3400    76.7380 HW1           1 RES     
    6966 HW2         24.3510    44.3550    75.1160 HW2           1 RES     
    6967 OW          16.9500    40.7180    69.2680 OW            1 RES     
    6968 HW1         17.3200    41.3410    69.9550 HW1           1 RES     
    6969 HW2         17.6290    40.0150    69.0550 HW2           1 RES     
    6970 OW          26.8240    52.8050    72.6700 OW            1 RES     
    6971 HW1         26.0590    52.1650    72.7300 HW1           1 RES     
    6972 HW2         26.8390    53.2220    71.7610 HW2           1 RES     
    6973 OW          43.4390    53.8400    71.2680 OW            1 RES     
    6974 HW1         42.4600    53.6880    71.1350 HW1           1 RES     
    6975 HW2         43.8500    53.0280    71.6820 HW2           1 RES     
    6976 OW          27.0670    40.2710    67.7980 OW            1 RES     
    6977 HW1         27.1840    41.1570    67.3510 HW1           1 RES     
    6978 HW2         27.8920    39.7200    67.6670 HW2           1 RES     
    6979 OW          18.4850    42.2790    73.0660 OW            1 RES     
    6980 HW1         17.7500    42.8900    73.3590 HW1           1 RES     
    6981 HW2         18.1140    41.5770    72.4580 HW2           1 RES     
    6982 OW          36.9140    11.1810    78.8120 OW            1 RES     
    6983 HW1         36.8820    10.2040    78.6080 HW1           1 RES     
    6984 HW2         37.5720    11.6280    78.2050 HW2           1 RES     
    6985 OW           6.1050    53.7890    76.0460 OW            1 RES     
    6986 HW1          6.2520    53.2130    75.2430 HW1           1 RES     
    6987 HW2          5.2050    54.2210    75.9870 HW2           1 RES     
    6988 OW          35.6830    14.6250    75.6100 OW            1 RES     
    6989 HW1         36.1700    14.6860    74.7390 HW1           1 RES     
    6990 HW2         35.4740    15.5460    75.9400 HW2           1 RES     
    6991 OW          12.9580    41.5790    74.9800 OW            1 RES     
    6992 HW1         13.1750    42.4480    75.4230 HW1           1 RES     
    6993 HW2         12.6740    41.7470    74.0360 HW2           1 RES     
    6994 OW          18.3850     5.1780    67.8400 OW            1 RES     
    6995 HW1         18.4960     4.1950    67.9830 HW1           1 RES     
    6996 HW2         17.4140     5.3940    67.7370 HW2           1 RES     
    6997 OW          31.7510    12.5510    67.1090 OW            1 RES     
    6998 HW1         32.6620    12.9590    67.1630 HW1           1 RES     
    6999 HW2         31.7520    11.6690    67.5820 HW2           1 RES     
    7000 OW          42.0680    28.3360    77.9010 OW            1 RES     
    7001 HW1         42.6100    27.6150    77.4700 HW1           1 RES     
    7002 HW2         42.6700    28.9330    78.4330 HW2           1 RES     
    7003 OW          46.1690    35.4340    67.1080 OW            1 RES     
    7004 HW1         45.1930    35.5660    67.2800 HW1           1 RES     
    7005 HW2         46.3950    34.4640    67.1990 HW2           1 RES     
    7006 OW          21.1010    23.8110    70.0650 OW            1 RES     
    7007 HW1         20.1930    24.0070    70.4360 HW1           1 RES     
    7008 HW2         21.7860    24.3470    70.5580 HW2           1 RES     
    7009 OW          38.4480     9.3970    74.1550 OW            1 RES     
    7010 HW1         38.9970     9.3090    74.9850 HW1           1 RES     
    7011 HW2         37.9340    10.2550    74.1830 HW2           1 RES     
    7012 OW          43.0920    10.6450    68.1130 OW            1 RES     
    7013 HW1         42.8490    11.6130    68.0540 HW1           1 RES     
    7014 HW2         44.0150    10.5540    68.4880 HW2           1 RES     
    7015 OW          18.8810    51.4780    73.3360 OW            1 RES     
    7016 HW1         17.8860    51.4730    73.4270 HW1           1 RES     
    7017 HW2         19.2610    52.2430    73.8570 HW2           1 RES     
    7018 OW           6.0590    37.2580    75.6440 OW            1 RES     
    7019 HW1          5.6080    36.4280    75.3200 HW1           1 RES     
    7020 HW2          7.0080    37.2680    75.3270 HW2           1 RES     
    7021 OW           9.9430    20.8070    73.7890 OW            1 RES     
    7022 HW1          9.8880    21.7040    73.3520 HW1           1 RES     
    7023 HW2          9.0220    20.4350    73.9060 HW2           1 RES     
    7024 OW           6.4340    21.5820    77.6560 OW            1 RES     
    7025 HW1          6.6620    22.2040    78.4040 HW1           1 RES     
    7026 HW2          5.7630    20.9110    77.9730 HW2           1 RES     
    7027 OW          34.2620     6.7260    67.1080 OW            1 RES     
    7028 HW1         35.0660     6.1330    67.1090 HW1           1 RES     
    7029 HW2         33.4340     6.1660    67.1070 HW2           1 RES     
    7030 OW          24.5560    51.5940    75.2750 OW            1 RES     
    7031 HW1         24.8270    51.3280    74.3510 HW1           1 RES     
    7032 HW2         24.9770    50.9750    75.9380 HW2           1 RES     
    7033 OW           4.4230     7.1270    77.4620 OW            1 RES     
    7034 HW1          4.1270     6.4900    78.1730 HW1           1 RES     
    7035 HW2          5.3500     6.8930    77.1680 HW2           1 RES     
    7036 OW          41.2930    12.9360    77.9080 OW            1 RES     
    7037 HW1         40.4270    13.0200    77.4170 HW1           1 RES     
    7038 HW2         41.7610    12.1010    77.6210 HW2           1 RES     
    7039 OW          49.9590    37.7460    78.3910 OW            1 RES     
    7040 HW1         50.3820    36.9380    78.8000 HW1           1 RES     
    7041 HW2         49.0360    37.8620    78.7580 HW2           1 RES     
    7042 OW          40.4210     3.1720    70.8820 OW            1 RES     
    7043 HW1         40.9100     3.7980    71.4880 HW1           1 RES     
    7044 HW2         39.6980     3.6690    70.4020 HW2           1 RES     
    7045 OW          21.8330    40.1990    78.6540 OW            1 RES     
    7046 HW1         20.8500    40.2930    78.8090 HW1           1 RES     
    7047 HW2         22.1040    39.2470    78.7980 HW2           1 RES     
    7048 OW          24.7350    27.8680    73.3910 OW            1 RES     
    7049 HW1         24.1700    27.9410    72.5700 HW1           1 RES     
    7050 HW2         24.1520    27.9190    74.2020 HW2           1 RES     
    7051 OW           4.0520    31.7790    67.4280 OW            1 RES     
    7052 HW1          3.2970    32.3800    67.1690 HW1           1 RES     
    7053 HW2          3.8640    30.8500    67.1100 HW2           1 RES     
    7054 OW          42.5690    40.7480    67.7340 OW            1 RES     
    7055 HW1         42.4890    40.3720    68.6570 HW1           1 RES     
    7056 HW2         42.8760    40.0310    67.1070 HW2           1 RES     
    7057 OW          18.2020    37.9650    76.6550 OW            1 RES     
    7058 HW1         18.9390    38.5120    77.0520 HW1           1 RES     
    7059 HW2         17.5960    38.5570    76.1240 HW2           1 RES     
    7060 OW          29.2580    15.3950    73.5830 OW            1 RES     
    7061 HW1         28.7270    16.1560    73.2110 HW1           1 RES     
    7062 HW2         29.8080    14.9840    72.8550 HW2           1 RES     
    7063 OW          53.0180    51.7090    68.7400 OW            1 RES     
    7064 HW1         52.4350    50.8980    68.6930 HW1           1 RES     
    7065 HW2         53.9200    51.4510    69.0860 HW2           1 RES     
    7066 OW          10.4530    31.3820    76.9680 OW            1 RES     
    7067 HW1          9.4840    31.1370    76.9640 HW1           1 RES     
    7068 HW2         11.0080    30.5500    77.0040 HW2           1 RES     
    7069 OW          16.3090    16.0840    69.8490 OW            1 RES     
    7070 HW1         17.2580    16.0050    69.5470 HW1           1 RES     
    7071 HW2         16.1190    17.0310    70.1090 HW2           1 RES     
    7072 OW          29.2770    18.8090    74.1040 OW            1 RES     
    7073 HW1         29.2710    17.8780    74.4670 HW1           1 RES     
    7074 HW2         30.1870    19.2070    74.2210 HW2           1 RES     
    7075 OW          52.1400    11.6470    74.1520 OW            1 RES     
    7076 HW1         52.4730    10.7060    74.1030 HW1           1 RES     
    7077 HW2         52.9160    12.2700    74.2500 HW2           1 RES     
    7078 OW          12.7050    47.4450    70.9480 OW            1 RES     
    7079 HW1         13.4880    47.3190    71.5570 HW1           1 RES     
    7080 HW2         13.0070    47.3690    69.9970 HW2           1 RES     
    7081 OW          16.3430    45.8870    72.5570 OW            1 RES     
    7082 HW1         15.4870    45.3720    72.5290 HW1           1 RES     
    7083 HW2         17.1150    45.2570    72.4750 HW2           1 RES     
    7084 OW           9.9410    37.3180    70.7430 OW            1 RES     
    7085 HW1         10.3630    36.4130    70.7840 HW1           1 RES     
    7086 HW2         10.6440    38.0060    70.5600 HW2           1 RES     
    7087 OW          10.4220    36.8050    74.1140 OW            1 RES     
    7088 HW1         11.1560    37.1700    74.6860 HW1           1 RES     
    7089 HW2          9.7920    36.2720    74.6790 HW2           1 RES     
    7090 OW          41.3840     6.3950    72.0180 OW            1 RES     
    7091 HW1         42.2220     5.9390    71.7200 HW1           1 RES     
    7092 HW2         41.6010     7.0600    72.7320 HW2           1 RES     
    7093 OW          34.4300    54.1090    70.9150 OW            1 RES     
    7094 HW1         33.9170    54.7640    71.4680 HW1           1 RES     
    7095 HW2         35.2190    54.5660    70.5040 HW2           1 RES     
    7096 OW          42.5200    15.3480    67.6550 OW            1 RES     
    7097 HW1         42.2920    15.4050    68.6270 HW1           1 RES     
    7098 HW2         41.7270    15.6220    67.1100 HW2           1 RES     
    7099 OW          13.5380     9.2150    78.7770 OW            1 RES     
    7100 HW1         14.2440     8.5080    78.8120 HW1           1 RES     
    7101 HW2         12.6350     8.7850    78.7660 HW2           1 RES     
    7102 OW          18.9760    22.3960    67.6080 OW            1 RES     
    7103 HW1         19.4460    22.5610    68.4740 HW1           1 RES     
    7104 HW2         18.5690    21.4820    67.6180 HW2           1 RES     
    7105 OW          36.2730    21.3450    71.6930 OW            1 RES     
    7106 HW1         35.3050    21.3730    71.4470 HW1           1 RES     
    7107 HW2         36.4000    20.7480    72.4850 HW2           1 RES     
    7108 OW          32.0750    18.9670    71.8920 OW            1 RES     
    7109 HW1         32.4030    19.1890    72.8100 HW1           1 RES     
    7110 HW2         32.7890    18.4740    71.3930 HW2           1 RES     
    7111 OW          21.8020    17.4510    77.6650 OW            1 RES     
    7112 HW1         21.2230    18.1340    78.1090 HW1           1 RES     
    7113 HW2         22.6440    17.8850    77.3440 HW2           1 RES     
    7114 OW          34.4280     7.0290    75.4850 OW            1 RES     
    7115 HW1         34.2620     7.0040    74.5000 HW1           1 RES     
    7116 HW2         34.0590     6.2010    75.9070 HW2           1 RES     
    7117 OW          26.2690     6.2850    69.0500 OW            1 RES     
    7118 HW1         25.7030     6.3090    69.8730 HW1           1 RES     
    7119 HW2         26.2610     7.1840    68.6120 HW2           1 RES     
    7120 OW           3.0520    53.4110    78.5750 OW            1 RES     
    7121 HW1          3.4580    54.3190    78.4780 HW1           1 RES     
    7122 HW2          2.5010    53.2030    77.7660 HW2           1 RES     
    7123 OW          20.5520    29.7780    67.1080 OW            1 RES     
    7124 HW1         21.1330    30.5910    67.1080 HW1           1 RES     
    7125 HW2         19.5910    30.0540    67.1080 HW2           1 RES     
    7126 OW           6.5240    35.2830    76.9600 OW            1 RES     
    7127 HW1          7.5020    35.2850    76.7550 HW1           1 RES     
    7128 HW2          6.3530    34.7190    77.7680 HW2           1 RES     
    7129 OW          31.1030    27.8620    68.1990 OW            1 RES     
    7130 HW1         31.9240    28.3250    68.5300 HW1           1 RES     
    7131 HW2         30.3330    28.5010    68.2080 HW2           1 RES     
    7132 OW          54.7860    38.1860    71.5990 OW            1 RES     
    7133 HW1         53.9340    37.6790    71.4700 HW1           1 RES     
    7134 HW2         54.5780    39.1460    71.7860 HW2           1 RES     
    7135 OW          14.1290    49.8410    70.6670 OW            1 RES     
    7136 HW1         14.2280    49.2190    69.8910 HW1           1 RES     
    7137 HW2         13.4160    49.5000    71.2800 HW2           1 RES     
    7138 OW          50.1760    39.9140    73.7320 OW            1 RES     
    7139 HW1         50.2880    40.8050    73.2930 HW1           1 RES     
    7140 HW2         50.9420    39.7480    74.3520 HW2           1 RES     
    7141 OW          25.1690    46.5800    77.6080 OW            1 RES     
    7142 HW1         25.7050    45.7600    77.4070 HW1           1 RES     
    7143 HW2         25.7670    47.3810    77.5940 HW2           1 RES     
    7144 OW           7.9520    39.5430    76.6780 OW            1 RES     
    7145 HW1          8.8660    39.4090    77.0600 HW1           1 RES     
    7146 HW2          7.3100    38.9170    77.1210 HW2           1 RES     
    7147 OW          27.9790    45.9710    70.0570 OW            1 RES     
    7148 HW1         26.9850    46.0420    69.9910 HW1           1 RES     
    7149 HW2         28.3900    46.8680    69.8940 HW2           1 RES     
    7150 OW           5.4660    14.9500    71.5710 OW            1 RES     
    7151 HW1          4.5520    15.3190    71.7390 HW1           1 RES     
    7152 HW2          5.3890    14.0470    71.1490 HW2           1 RES     
    7153 OW          29.5370    27.1940    72.5940 OW            1 RES     
    7154 HW1         30.5290    27.0930    72.6600 HW1           1 RES     
    7155 HW2         29.2470    27.9950    73.1180 HW2           1 RES     
    7156 OW          17.0620    48.9430    76.6210 OW            1 RES     
    7157 HW1         17.6880    48.5830    77.3110 HW1           1 RES     
    7158 HW2         16.3190    49.4400    77.0700 HW2           1 RES     
    7159 OW          37.0130    36.8390    69.6210 OW            1 RES     
    7160 HW1         36.5070    36.1380    70.1210 HW1           1 RES     
    7161 HW2         36.5230    37.7090    69.6780 HW2           1 RES     
    7162 OW          34.4850    37.2100    78.8030 OW            1 RES     
    7163 HW1         35.1530    36.4730    78.7050 HW1           1 RES     
    7164 HW2         33.5620    36.8420    78.6910 HW2           1 RES     
    7165 OW          15.1240     4.3760    68.9640 OW            1 RES     
    7166 HW1         14.7970     4.8140    68.1270 HW1           1 RES     
    7167 HW2         15.0760     3.3820    68.8620 HW2           1 RES     
    7168 OW          39.3700    25.5440    67.3960 OW            1 RES     
    7169 HW1         39.6960    24.6030    67.4830 HW1           1 RES     
    7170 HW2         38.4110    25.5400    67.1100 HW2           1 RES     
    7171 OW          37.2880    13.7600    76.8410 OW            1 RES     
    7172 HW1         36.6030    13.0320    76.8160 HW1           1 RES     
    7173 HW2         38.1920    13.3620    76.9980 HW2           1 RES     
    7174 OW          44.2720    51.6960    75.2840 OW            1 RES     
    7175 HW1         43.7080    52.5150    75.3830 HW1           1 RES     
    7176 HW2         45.2330    51.9590    75.1980 HW2           1 RES     
    7177 OW           7.8360    47.1020    72.5210 OW            1 RES     
    7178 HW1          8.6430    47.6830    72.4230 HW1           1 RES     
    7179 HW2          7.6080    47.0070    73.4900 HW2           1 RES     
    7180 OW           4.2680    11.6970    73.0250 OW            1 RES     
    7181 HW1          4.2330    12.6140    72.6280 HW1           1 RES     
    7182 HW2          5.0030    11.1740    72.5930 HW2           1 RES     
    7183 OW          35.3770    22.5200    73.3230 OW            1 RES     
    7184 HW1         35.1160    22.0310    74.1550 HW1           1 RES     
    7185 HW2         34.6160    23.0960    73.0230 HW2           1 RES     
    7186 OW          41.9740    48.3640    74.2510 OW            1 RES     
    7187 HW1         40.9880    48.5060    74.3350 HW1           1 RES     
    7188 HW2         42.3470    48.0780    75.1340 HW2           1 RES     
    7189 OW          14.6180    42.9060    69.7170 OW            1 RES     
    7190 HW1         15.2900    42.1670    69.7660 HW1           1 RES     
    7191 HW2         15.0920    43.7850    69.6650 HW2           1 RES     
    7192 OW          49.0710    24.0610    77.0900 OW            1 RES     
    7193 HW1         48.6300    24.5590    77.8350 HW1           1 RES     
    7194 HW2         49.3260    24.7010    76.3640 HW2           1 RES     
    7195 OW          25.6570    36.2300    72.0810 OW            1 RES     
    7196 HW1         25.9710    37.1010    71.7020 HW1           1 RES     
    7197 HW2         26.4370    35.7300    72.4580 HW2           1 RES     
    7198 OW          33.7720    34.1960    69.8120 OW            1 RES     
    7199 HW1         34.6620    34.1580    70.2660 HW1           1 RES     
    7200 HW2         33.8080    34.8580    69.0630 HW2           1 RES     
    7201 OW          29.2310    52.4670    76.1360 OW            1 RES     
    7202 HW1         28.3900    52.0590    76.4880 HW1           1 RES     
    7203 HW2         29.6330    51.8640    75.4470 HW2           1 RES     
    7204 OW           9.9610     3.5380    77.4650 OW            1 RES     
    7205 HW1          9.6100     2.6390    77.7260 HW1           1 RES     
    7206 HW2         10.9580     3.5420    77.5400 HW2           1 RES     
    7207 OW          15.7520    16.9960    78.0050 OW            1 RES     
    7208 HW1         16.1830    17.6250    77.3590 HW1           1 RES     
    7209 HW2         15.4440    17.5030    78.8100 HW2           1 RES     
    7210 OW          14.2540    21.2730    70.0340 OW            1 RES     
    7211 HW1         14.7890    22.1170    70.0630 HW1           1 RES     
    7212 HW2         14.7790    20.5610    69.5690 HW2           1 RES     
    7213 OW          41.4500    18.3690    67.7850 OW            1 RES     
    7214 HW1         41.8560    17.9150    68.5770 HW1           1 RES     
    7215 HW2         40.9880    17.6920    67.2120 HW2           1 RES     
    7216 OW          20.2700    41.0230    72.5540 OW            1 RES     
    7217 HW1         20.8110    40.2100    72.7670 HW1           1 RES     
    7218 HW2         20.6430    41.4690    71.7400 HW2           1 RES     
    7219 OW          24.6620    47.7350    70.7780 OW            1 RES     
    7220 HW1         24.4490    48.2660    69.9590 HW1           1 RES     
    7221 HW2         25.6490    47.5780    70.8270 HW2           1 RES     
    7222 OW          35.5500     4.8590    71.7660 OW            1 RES     
    7223 HW1         34.7150     5.2900    72.1070 HW1           1 RES     
    7224 HW2         35.6590     3.9610    72.1920 HW2           1 RES     
    7225 OW          43.9930    28.7170    74.9970 OW            1 RES     
    7226 HW1         43.6700    27.9800    74.4040 HW1           1 RES     
    7227 HW2         44.3820    29.4500    74.4370 HW2           1 RES     
    7228 OW          37.9220    43.0000    78.5450 OW            1 RES     
    7229 HW1         38.0620    42.0390    78.7810 HW1           1 RES     
    7230 HW2         38.7290    43.5300    78.8090 HW2           1 RES     
    7231 OW          23.2950    21.4800    74.8000 OW            1 RES     
    7232 HW1         23.1110    22.4480    74.9720 HW1           1 RES     
    7233 HW2         24.2140    21.3780    74.4180 HW2           1 RES     
    7234 OW          13.1710    19.5570    68.4520 OW            1 RES     
    7235 HW1         12.5090    20.2750    68.6670 HW1           1 RES     
    7236 HW2         12.7270    18.6630    68.5170 HW2           1 RES     
    7237 OW          34.0750    20.4650    77.6110 OW            1 RES     
    7238 HW1         33.2490    20.1640    78.0860 HW1           1 RES     
    7239 HW2         34.4290    21.2920    78.0470 HW2           1 RES     
    7240 OW           4.0250     9.2110    78.8090 OW            1 RES     
    7241 HW1          4.0470    10.2070    78.7330 HW1           1 RES     
    7242 HW2          4.9540     8.8490    78.7240 HW2           1 RES     
    7243 OW          47.6220    46.4750    67.6220 OW            1 RES     
    7244 HW1         48.5980    46.6200    67.7820 HW1           1 RES     
    7245 HW2         47.2180    46.0170    68.4150 HW2           1 RES     
    7246 OW          21.9790    54.3900    70.8930 OW            1 RES     
    7247 HW1         22.2550    54.7860    70.0180 HW1           1 RES     
    7248 HW2         21.1060    54.7860    71.1780 HW2           1 RES     
    7249 OW          50.8890    22.8380    67.1080 OW            1 RES     
    7250 HW1         51.0390    23.8260    67.1160 HW1           1 RES     
    7251 HW2         51.7710    22.3670    67.1170 HW2           1 RES     
    7252 OW          11.4970    54.1930    68.2900 OW            1 RES     
    7253 HW1         11.8410    53.3230    68.6420 HW1           1 RES     
    7254 HW2         10.5140    54.1200    68.1200 HW2           1 RES     
    7255 OW          41.1520    13.6380    67.8650 OW            1 RES     
    7256 HW1         41.5030    13.2830    68.7310 HW1           1 RES     
    7257 HW2         41.5340    13.1080    67.1080 HW2           1 RES     
    7258 OW          47.6130    43.8780    74.9880 OW            1 RES     
    7259 HW1         46.9360    43.1630    74.8140 HW1           1 RES     
    7260 HW2         47.2340    44.7670    74.7300 HW2           1 RES     
    7261 OW           4.3520    19.0590    67.1090 OW            1 RES     
    7262 HW1          3.5150    19.6050    67.1350 HW1           1 RES     
    7263 HW2          4.1180    18.0880    67.1640 HW2           1 RES     
    7264 OW           3.4290    35.6250    69.9230 OW            1 RES     
    7265 HW1          2.5000    35.2590    69.8810 HW1           1 RES     
    7266 HW2          3.3930    36.6220    69.9960 HW2           1 RES     
    7267 OW          48.8910    32.5130    78.1760 OW            1 RES     
    7268 HW1         48.4880    33.4280    78.1940 HW1           1 RES     
    7269 HW2         49.8880    32.5880    78.1540 HW2           1 RES     
    7270 OW          36.1460    36.1230    72.7990 OW            1 RES     
    7271 HW1         35.7230    35.3720    73.3040 HW1           1 RES     
    7272 HW2         36.8990    36.5040    73.3360 HW2           1 RES     
    7273 OW          24.0740    45.3540    72.3700 OW            1 RES     
    7274 HW1         24.4760    46.2680    72.4070 HW1           1 RES     
    7275 HW2         23.1810    45.3630    72.8210 HW2           1 RES     
    7276 OW          44.3040     8.7360    71.0500 OW            1 RES     
    7277 HW1         44.1620     7.9960    70.3930 HW1           1 RES     
    7278 HW2         43.8480     9.5640    70.7230 HW2           1 RES     
    7279 OW          49.4470     3.1880    71.0340 OW            1 RES     
    7280 HW1         50.1720     2.5000    71.0250 HW1           1 RES     
    7281 HW2         48.6300     2.8180    70.5900 HW2           1 RES     
    7282 OW          53.2980     9.3170    69.5300 OW            1 RES     
    7283 HW1         54.1260     9.8750    69.5110 HW1           1 RES     
    7284 HW2         52.5020     9.9040    69.6790 HW2           1 RES     
    7285 OW          49.9140    42.3530    75.4520 OW            1 RES     
    7286 HW1         50.8390    41.9750    75.4320 HW1           1 RES     
    7287 HW2         49.2800    41.7040    75.0310 HW2           1 RES     
    7288 OW          30.0980    10.5600    78.7320 OW            1 RES     
    7289 HW1         30.6470     9.7270    78.7960 HW1           1 RES     
    7290 HW2         30.7010    11.3580    78.7350 HW2           1 RES     
    7291 OW          31.7120    46.4390    69.3130 OW            1 RES     
    7292 HW1         32.1700    45.5510    69.2870 HW1           1 RES     
    7293 HW2         32.3970    47.1680    69.3180 HW2           1 RES     
    7294 OW          28.9970    38.1550    69.4510 OW            1 RES     
    7295 HW1         29.2080    39.1290    69.3880 HW1           1 RES     
    7296 HW2         28.1380    37.9670    68.9740 HW2           1 RES     
    7297 OW          41.3950    40.9650    70.7250 OW            1 RES     
    7298 HW1         40.8410    41.7970    70.7260 HW1           1 RES     
    7299 HW2         42.3640    41.2100    70.6880 HW2           1 RES     
    7300 OW          44.6200     9.0280    76.4470 OW            1 RES     
    7301 HW1         45.3060     8.3640    76.7420 HW1           1 RES     
    7302 HW2         43.9080     8.5610    75.9210 HW2           1 RES     
    7303 OW          39.1080    40.5480    77.5480 OW            1 RES     
    7304 HW1         40.0520    40.6410    77.2330 HW1           1 RES     
    7305 HW2         38.9560    39.6150    77.8760 HW2           1 RES     
    7306 OW          32.3880    25.2540    72.9830 OW            1 RES     
    7307 HW1         32.7450    24.3590    72.7170 HW1           1 RES     
    7308 HW2         31.8360    25.1600    73.8120 HW2           1 RES     
    7309 OW          25.9020    14.9070    78.7410 OW            1 RES     
    7310 HW1         25.6070    14.0840    78.2570 HW1           1 RES     
    7311 HW2         26.2410    15.5780    78.0820 HW2           1 RES     
    7312 OW          47.0940     3.6670    72.0930 OW            1 RES     
    7313 HW1         46.7990     4.5610    71.7570 HW1           1 RES     
    7314 HW2         46.3070     3.0520    72.1410 HW2           1 RES     
    7315 OW          28.0630    17.4160    70.5710 OW            1 RES     
    7316 HW1         27.3110    17.5430    69.9240 HW1           1 RES     
    7317 HW2         28.2430    18.2770    71.0470 HW2           1 RES     
    7318 OW          53.8720    46.8640    76.3230 OW            1 RES     
    7319 HW1         53.3140    47.5450    76.7960 HW1           1 RES     
    7320 HW2         54.3300    47.2910    75.5430 HW2           1 RES     
    7321 OW          20.4580    10.6520    67.8690 OW            1 RES     
    7322 HW1         20.6140    11.6360    67.9470 HW1           1 RES     
    7323 HW2         19.5230    10.4860    67.5550 HW2           1 RES     
    7324 OW          44.1880    44.1520    75.9990 OW            1 RES     
    7325 HW1         44.6530    43.2710    76.0780 HW1           1 RES     
    7326 HW2         44.1330    44.5830    76.9000 HW2           1 RES     
    7327 OW          12.7130    41.7970    69.5200 OW            1 RES     
    7328 HW1         11.8310    41.3890    69.2890 HW1           1 RES     
    7329 HW2         13.3830    41.0730    69.6880 HW2           1 RES     
    7330 OW          36.0600    18.4110    71.4230 OW            1 RES     
    7331 HW1         35.1140    18.6470    71.2060 HW1           1 RES     
    7332 HW2         36.4820    17.9620    70.6350 HW2           1 RES     
    7333 OW          53.1090    51.8910    73.2330 OW            1 RES     
    7334 HW1         52.3060    51.7310    73.8070 HW1           1 RES     
    7335 HW2         53.0150    52.7710    72.7650 HW2           1 RES     
    7336 OW          38.0190    53.6270    75.7130 OW            1 RES     
    7337 HW1         37.0570    53.3580    75.7270 HW1           1 RES     
    7338 HW2         38.5910    52.8290    75.9050 HW2           1 RES     
    7339 OW          13.4890    36.0440    72.7620 OW            1 RES     
    7340 HW1         12.6490    35.5460    72.9720 HW1           1 RES     
    7341 HW2         13.3370    37.0240    72.8870 HW2           1 RES     
    7342 OW           4.0090    52.4810    75.3280 OW            1 RES     
    7343 HW1          3.0470    52.6710    75.1370 HW1           1 RES     
    7344 HW2          4.0930    52.0590    76.2310 HW2           1 RES     
    7345 OW           7.0410     4.3940    74.4240 OW            1 RES     
    7346 HW1          6.6730     3.5750    74.8630 HW1           1 RES     
    7347 HW2          7.0340     5.1530    75.0750 HW2           1 RES     
    7348 OW          32.5080    32.9080    78.5060 OW            1 RES     
    7349 HW1         32.3490    31.9640    78.2180 HW1           1 RES     
    7350 HW2         33.4560    33.0100    78.8090 HW2           1 RES     
    7351 OW          54.3120     4.2550    72.3580 OW            1 RES     
    7352 HW1         54.6650     3.3490    72.1260 HW1           1 RES     
    7353 HW2         54.7130     4.5600    73.2210 HW2           1 RES     
    7354 OW          24.6700    13.0100    75.5230 OW            1 RES     
    7355 HW1         24.0160    13.1900    76.2560 HW1           1 RES     
    7356 HW2         24.4560    12.1330    75.0910 HW2           1 RES     
    7357 OW           3.6130    19.8450    69.3490 OW            1 RES     
    7358 HW1          2.6680    20.0760    69.5800 HW1           1 RES     
    7359 HW2          3.6880    18.8590    69.1970 HW2           1 RES     
    7360 OW          46.2640    27.9940    74.3830 OW            1 RES     
    7361 HW1         46.4470    27.5290    75.2490 HW1           1 RES     
    7362 HW2         46.3440    27.3410    73.6300 HW2           1 RES     
    7363 OW          51.1320    26.5880    77.4410 OW            1 RES     
    7364 HW1         50.7310    25.8180    77.9360 HW1           1 RES     
    7365 HW2         52.0810    26.7140    77.7320 HW2           1 RES     
    7366 OW          10.6410    10.8710    72.5420 OW            1 RES     
    7367 HW1         10.5980     9.9100    72.8100 HW1           1 RES     
    7368 HW2         10.9810    10.9420    71.6040 HW2           1 RES     
    7369 OW          12.8740    19.6690    77.2570 OW            1 RES     
    7370 HW1         12.1620    20.3470    77.4370 HW1           1 RES     
    7371 HW2         12.6690    18.8280    77.7580 HW2           1 RES     
    7372 OW          53.3940    21.3020    68.1610 OW            1 RES     
    7373 HW1         53.6200    20.4680    67.6580 HW1           1 RES     
    7374 HW2         52.5970    21.1350    68.7420 HW2           1 RES     
    7375 OW          15.8240    34.7980    68.1510 OW            1 RES     
    7376 HW1         15.4740    34.5750    69.0600 HW1           1 RES     
    7377 HW2         16.7200    34.3730    68.0240 HW2           1 RES     
    7378 OW          30.6570    42.3180    75.8250 OW            1 RES     
    7379 HW1         30.0880    41.5900    75.4440 HW1           1 RES     
    7380 HW2         30.1730    42.7610    76.5800 HW2           1 RES     
    7381 OW          13.4760    16.8120    78.1090 OW            1 RES     
    7382 HW1         12.7660    16.8280    78.8120 HW1           1 RES     
    7383 HW2         13.4760    15.9200    77.6550 HW2           1 RES     
    7384 OW          36.5910    50.4740    74.6530 OW            1 RES     
    7385 HW1         36.4450    51.4480    74.8230 HW1           1 RES     
    7386 HW2         35.8840    50.1340    74.0320 HW2           1 RES     
    7387 OW          39.4990    12.1930    68.0250 OW            1 RES     
    7388 HW1         38.8200    12.9060    68.1950 HW1           1 RES     
    7389 HW2         39.0380    11.3570    67.7270 HW2           1 RES     
    7390 OW          29.3320    22.9380    69.6820 OW            1 RES     
    7391 HW1         28.5980    23.6160    69.6880 HW1           1 RES     
    7392 HW2         28.9390    22.0210    69.5980 HW2           1 RES     
    7393 OW          48.7820    22.5420    74.9110 OW            1 RES     
    7394 HW1         49.6740    22.9720    75.0490 HW1           1 RES     
    7395 HW2         48.6470    21.8280    75.5980 HW2           1 RES     
    7396 OW           3.5790    54.2170    73.4550 OW            1 RES     
    7397 HW1          3.0920    54.7860    72.7930 HW1           1 RES     
    7398 HW2          4.2170    54.7830    73.9770 HW2           1 RES     
    7399 OW          47.5630    43.3820    67.1330 OW            1 RES     
    7400 HW1         47.0760    44.2540    67.1070 HW1           1 RES     
    7401 HW2         48.5470    43.5500    67.1970 HW2           1 RES     
    7402 OW          35.4200    27.5000    74.4530 OW            1 RES     
    7403 HW1         34.8120    27.2600    75.2090 HW1           1 RES     
    7404 HW2         36.2370    26.9240    74.4860 HW2           1 RES     
    7405 OW           3.7180    43.9810    67.5920 OW            1 RES     
    7406 HW1          2.9720    44.6110    67.8080 HW1           1 RES     
    7407 HW2          4.5940    44.4230    67.7820 HW2           1 RES     
    7408 OW          11.7840    14.0210    74.0310 OW            1 RES     
    7409 HW1         11.6800    15.0140    74.0160 HW1           1 RES     
    7410 HW2         12.1480    13.7360    74.9190 HW2           1 RES     
    7411 OW          39.2680     3.2200    67.2760 OW            1 RES     
    7412 HW1         40.1290     2.7420    67.1080 HW1           1 RES     
    7413 HW2         38.5050     2.5810    67.1750 HW2           1 RES     
    7414 OW          25.3500    30.6890    67.6440 OW            1 RES     
    7415 HW1         24.7490    30.9380    68.4030 HW1           1 RES     
    7416 HW2         25.5660    31.5060    67.1080 HW2           1 RES     
    7417 OW          14.3460    18.9210    70.9700 OW            1 RES     
    7418 HW1         13.7890    18.1460    71.2680 HW1           1 RES     
    7419 HW2         14.3460    19.6250    71.6800 HW2           1 RES     
    7420 OW           5.4330    11.5820    70.0520 OW            1 RES     
    7421 HW1          6.2440    11.5170    70.6320 HW1           1 RES     
    7422 HW2          4.6950    12.0290    70.5580 HW2           1 RES     
    7423 OW          14.2030    24.1170    68.4970 OW            1 RES     
    7424 HW1         14.2910    24.0180    67.5060 HW1           1 RES     
    7425 HW2         14.6180    24.9800    68.7840 HW2           1 RES     
    7426 OW          14.1730    50.0440    67.4500 OW            1 RES     
    7427 HW1         13.9410    49.1080    67.7110 HW1           1 RES     
    7428 HW2         15.1290    50.0810    67.1560 HW2           1 RES     
    7429 OW          12.4850    39.3320    72.1780 OW            1 RES     
    7430 HW1         13.3690    39.2090    72.6290 HW1           1 RES     
    7431 HW2         12.5880    39.1840    71.1950 HW2           1 RES     
    7432 OW          32.7950    46.4380    76.6790 OW            1 RES     
    7433 HW1         32.7640    46.8440    75.7660 HW1           1 RES     
    7434 HW2         33.4700    45.7010    76.6940 HW2           1 RES     
    7435 OW          42.0140    45.1540    78.3390 OW            1 RES     
    7436 HW1         42.4890    44.2950    78.5250 HW1           1 RES     
    7437 HW2         41.0940    44.9600    77.9980 HW2           1 RES     
    7438 OW          43.1450     5.8740    68.6690 OW            1 RES     
    7439 HW1         43.8100     5.2130    68.3220 HW1           1 RES     
    7440 HW2         43.0270     6.6100    68.0030 HW2           1 RES     
    7441 OW          32.2770     9.9890    77.2580 OW            1 RES     
    7442 HW1         32.6050     9.2910    77.8930 HW1           1 RES     
    7443 HW2         31.8580     9.5490    76.4640 HW2           1 RES     
    7444 OW          47.2050    40.1300    73.9310 OW            1 RES     
    7445 HW1         47.9990    39.6100    73.6180 HW1           1 RES     
    7446 HW2         47.4410    41.1010    73.9840 HW2           1 RES     
    7447 OW          31.1700    12.3540    72.1180 OW            1 RES     
    7448 HW1         30.9580    11.3780    72.0760 HW1           1 RES     
    7449 HW2         30.3200    12.8790    72.1470 HW2           1 RES     
    7450 OW          34.6800    10.0750    78.2790 OW            1 RES     
    7451 HW1         34.0650    10.6590    78.8080 HW1           1 RES     
    7452 HW2         34.9060     9.2590    78.8110 HW2           1 RES     
    7453 OW          10.1930     4.7800    69.9850 OW            1 RES     
    7454 HW1          9.8050     4.0060    69.4860 HW1           1 RES     
    7455 HW2         11.1810     4.6560    70.0770 HW2           1 RES     
    7456 OW          12.8820    14.3740    72.1580 OW            1 RES     
    7457 HW1         12.5820    15.3190    72.0310 HW1           1 RES     
    7458 HW2         13.8810    14.3460    72.2100 HW2           1 RES     
    7459 OW          35.5680    49.9040    78.1410 OW            1 RES     
    7460 HW1         36.0030    50.4250    77.4070 HW1           1 RES     
    7461 HW2         34.8090    49.3700    77.7660 HW2           1 RES     
    7462 OW          12.2450    44.0970    77.1300 OW            1 RES     
    7463 HW1         11.5800    44.7460    77.4970 HW1           1 RES     
    7464 HW2         12.5400    44.3970    76.2220 HW2           1 RES     
    7465 OW          13.7720    17.5110    73.8810 OW            1 RES     
    7466 HW1         13.0830    16.9740    73.3940 HW1           1 RES     
    7467 HW2         13.8590    18.4100    73.4510 HW2           1 RES     
    7468 OW          36.7410     3.2310    77.8060 OW            1 RES     
    7469 HW1         36.8920     4.2150    77.8830 HW1           1 RES     
    7470 HW2         37.5490     2.7990    77.4040 HW2           1 RES     
    7471 OW          33.4810     4.7750    74.3350 OW            1 RES     
    7472 HW1         33.6620     3.8160    74.1200 HW1           1 RES     
    7473 HW2         32.6220     4.8470    74.8420 HW2           1 RES     
    7474 OW          47.5540    39.8810    76.0880 OW            1 RES     
    7475 HW1         47.2690    38.9250    76.1460 HW1           1 RES     
    7476 HW2         48.5520    39.9340    76.1150 HW2           1 RES     
    7477 OW          18.9420    48.3300    75.5210 OW            1 RES     
    7478 HW1         19.3130    49.2560    75.5750 HW1           1 RES     
    7479 HW2         19.6860    47.6810    75.3600 HW2           1 RES     
    7480 OW          13.0370    51.6450    78.7280 OW            1 RES     
    7481 HW1         12.0450    51.7330    78.8120 HW1           1 RES     
    7482 HW2         13.4170    52.4900    78.3510 HW2           1 RES     
    7483 OW          28.9340    14.9530    67.1150 OW            1 RES     
    7484 HW1         28.7090    13.9810    67.1660 HW1           1 RES     
    7485 HW2         28.0900    15.4910    67.1070 HW2           1 RES     
    7486 OW          18.4630    22.6480    70.4410 OW            1 RES     
    7487 HW1         17.8410    23.3470    70.7930 HW1           1 RES     
    7488 HW2         18.5050    21.8840    71.0850 HW2           1 RES     
    7489 OW          45.0420    15.7610    76.4880 OW            1 RES     
    7490 HW1         44.9860    16.7540    76.5900 HW1           1 RES     
    7491 HW2         45.8720    15.4260    76.9350 HW2           1 RES     
    7492 OW          22.3170    28.1160    70.1580 OW            1 RES     
    7493 HW1         22.8210    27.2760    69.9600 HW1           1 RES     
    7494 HW2         22.9510    28.8890    70.1740 HW2           1 RES     
    7495 OW          49.5930    18.9610    75.3890 OW            1 RES     
    7496 HW1         50.5670    18.8130    75.5570 HW1           1 RES     
    7497 HW2         49.4560    19.8710    74.9970 HW2           1 RES     
    7498 OW          14.7710    43.0050    67.5230 OW            1 RES     
    7499 HW1         14.4120    43.8410    67.1080 HW1           1 RES     
    7500 HW2         15.7490    42.9290    67.3290 HW2           1 RES     
    7501 OW          13.5290    45.8180    78.7820 OW            1 RES     
    7502 HW1         13.4630    44.8220    78.8120 HW1           1 RES     
    7503 HW2         12.6100    46.2140    78.7770 HW2           1 RES     
    7504 OW          25.2920    53.8990    76.6810 OW            1 RES     
    7505 HW1         24.6770    54.2150    75.9590 HW1           1 RES     
    7506 HW2         26.0900    54.5000    76.7270 HW2           1 RES     
    7507 OW          35.2050    44.3200    70.2860 OW            1 RES     
    7508 HW1         35.0550    43.6360    69.5720 HW1           1 RES     
    7509 HW2         34.7630    44.0220    71.1320 HW2           1 RES     
    7510 OW          29.1250    12.1950    74.4400 OW            1 RES     
    7511 HW1         29.2240    11.2070    74.5490 HW1           1 RES     
    7512 HW2         28.2940    12.5010    74.9050 HW2           1 RES     
    7513 OW           4.8730    17.0840    75.1760 OW            1 RES     
    7514 HW1          4.0820    17.4210    74.6670 HW1           1 RES     
    7515 HW2          5.2950    16.3290    74.6730 HW2           1 RES     
    7516 OW          36.2770    25.1680    76.2320 OW            1 RES     
    7517 HW1         35.4170    24.6680    76.3270 HW1           1 RES     
    7518 HW2         36.1480    26.1140    76.5300 HW2           1 RES     
    7519 OW          22.2410    21.6120    69.1410 OW            1 RES     
    7520 HW1         22.0100    21.7970    68.1860 HW1           1 RES     
    7521 HW2         22.7070    22.4070    69.5310 HW2           1 RES     
    7522 OW          31.2590    14.0090    74.9710 OW            1 RES     
    7523 HW1         30.4770    14.1480    75.5770 HW1           1 RES     
    7524 HW2         31.0730    13.2410    74.3570 HW2           1 RES     
    7525 OW          31.1250     5.9760    71.0180 OW            1 RES     
    7526 HW1         30.3020     6.1860    71.5440 HW1           1 RES     
    7527 HW2         30.8650     5.6280    70.1160 HW2           1 RES     
    7528 OW          17.3180    27.4500    67.1330 OW            1 RES     
    7529 HW1         17.7630    26.5560    67.1160 HW1           1 RES     
    7530 HW2         16.3260    27.3300    67.1070 HW2           1 RES     
    7531 OW           6.7030    32.6490    70.8060 OW            1 RES     
    7532 HW1          6.3140    33.0000    69.9550 HW1           1 RES     
    7533 HW2          6.8420    31.6620    70.7280 HW2           1 RES     
    7534 OW          49.3780    46.2720    70.6600 OW            1 RES     
    7535 HW1         49.0500    45.4000    71.0200 HW1           1 RES     
    7536 HW2         49.6000    46.1700    69.6900 HW2           1 RES     
    7537 OW          21.0650     7.2710    75.8650 OW            1 RES     
    7538 HW1         21.9750     7.6710    75.7610 HW1           1 RES     
    7539 HW2         21.1520     6.3090    76.1260 HW2           1 RES     
    7540 OW          15.7310    42.7580    74.2950 OW            1 RES     
    7541 HW1         14.8740    42.3170    74.0320 HW1           1 RES     
    7542 HW2         15.7690    43.6770    73.9030 HW2           1 RES     
    7543 OW          44.9110    33.3260    74.4060 OW            1 RES     
    7544 HW1         44.3090    34.0340    74.0370 HW1           1 RES     
    7545 HW2         44.9630    32.5630    73.7610 HW2           1 RES     
    7546 OW          30.4370     7.0720    77.8930 OW            1 RES     
    7547 HW1         31.2340     6.4750    77.8050 HW1           1 RES     
    7548 HW2         30.4870     7.7990    77.2080 HW2           1 RES     
    7549 OW          14.7050    22.0410    76.7570 OW            1 RES     
    7550 HW1         15.3360    21.2680    76.7100 HW1           1 RES     
    7551 HW2         13.7630    21.7040    76.7770 HW2           1 RES     
    7552 OW          30.2330    40.7460    67.2030 OW            1 RES     
    7553 HW1         29.3740    41.2480    67.1140 HW1           1 RES     
    7554 HW2         30.0450    39.7630    67.2180 HW2           1 RES     
    7555 OW          30.1100    32.6320    74.4400 OW            1 RES     
    7556 HW1         29.2540    32.1220    74.3680 HW1           1 RES     
    7557 HW2         29.9150    33.6130    74.4560 HW2           1 RES     
    7558 OW          51.0400    30.6620    73.1040 OW            1 RES     
    7559 HW1         50.1770    30.1560    73.1170 HW1           1 RES     
    7560 HW2         50.8510    31.6440    73.1070 HW2           1 RES     
    7561 OW           3.7920    47.2210    77.6400 OW            1 RES     
    7562 HW1          3.3820    48.1320    77.6550 HW1           1 RES     
    7563 HW2          4.3890    47.1350    76.8420 HW2           1 RES     
    7564 OW          12.7050    26.0760    68.3510 OW            1 RES     
    7565 HW1         11.7380    26.0010    68.1090 HW1           1 RES     
    7566 HW2         12.7910    26.4770    69.2630 HW2           1 RES     
    7567 OW           5.7330    54.2770    70.3140 OW            1 RES     
    7568 HW1          5.7220    54.7830    69.4520 HW1           1 RES     
    7569 HW2          5.2190    54.7850    71.0060 HW2           1 RES     
    7570 OW          22.0580    46.7020    74.5330 OW            1 RES     
    7571 HW1         22.9720    46.3710    74.7650 HW1           1 RES     
    7572 HW2         21.4230    45.9300    74.4970 HW2           1 RES     
    7573 OW          33.9580    20.2460    67.1110 OW            1 RES     
    7574 HW1         34.9520    20.3540    67.1090 HW1           1 RES     
    7575 HW2         33.7270    19.2730    67.1070 HW2           1 RES     
    7576 OW          25.9490    46.0290    75.2370 OW            1 RES     
    7577 HW1         26.8230    46.5120    75.2740 HW1           1 RES     
    7578 HW2         25.6790    45.8990    74.2830 HW2           1 RES     
    7579 OW          14.8440    26.0940    78.8120 OW            1 RES     
    7580 HW1         13.8600    26.1480    78.6440 HW1           1 RES     
    7581 HW2         15.2340    27.0150    78.8060 HW2           1 RES     
    7582 OW          16.6720    23.4310    78.8120 OW            1 RES     
    7583 HW1         15.8670    22.8380    78.8120 HW1           1 RES     
    7584 HW2         16.3820    24.3880    78.8120 HW2           1 RES     
    7585 OW           7.8930    49.6980    74.1940 OW            1 RES     
    7586 HW1          7.3330    48.9350    74.5140 HW1           1 RES     
    7587 HW2          8.0010    49.6390    73.2010 HW2           1 RES     
    7588 OW          10.6050    47.1300    67.4600 OW            1 RES     
    7589 HW1         10.0060    46.3540    67.2670 HW1           1 RES     
    7590 HW2         11.5220    46.9400    67.1080 HW2           1 RES     
    7591 OW          31.1200    16.5350    73.8570 OW            1 RES     
    7592 HW1         31.4750    17.4690    73.8210 HW1           1 RES     
    7593 HW2         31.8770    15.8870    73.7790 HW2           1 RES     
    7594 OW           9.8580    33.3050    78.6170 OW            1 RES     
    7595 HW1          9.6910    32.3370    78.7970 HW1           1 RES     
    7596 HW2         10.8190    33.4390    78.3760 HW2           1 RES     
    7597 OW          26.9610    15.5810    68.9930 OW            1 RES     
    7598 HW1         26.6330    14.6370    69.0070 HW1           1 RES     
    7599 HW2         26.3680    16.1320    68.4060 HW2           1 RES     
    7600 OW          30.1860     8.3840    72.1330 OW            1 RES     
    7601 HW1         29.6480     8.5880    71.3160 HW1           1 RES     
    7602 HW2         30.8690     9.1010    72.2710 HW2           1 RES     
    7603 OW          49.7540     4.4300    78.8120 OW            1 RES     
    7604 HW1         49.7540     3.4510    78.6120 HW1           1 RES     
    7605 HW2         49.2420     4.9160    78.1030 HW2           1 RES     
    7606 OW          52.5790    44.3280    75.5140 OW            1 RES     
    7607 HW1         52.5470    44.4350    74.5210 HW1           1 RES     
    7608 HW2         51.9050    44.9340    75.9370 HW2           1 RES     
    7609 OW          53.4350    45.8950    72.2760 OW            1 RES     
    7610 HW1         54.3050    46.1260    71.8410 HW1           1 RES     
    7611 HW2         53.3730    44.9040    72.3940 HW2           1 RES     
    7612 OW          42.5390    16.3840    70.6200 OW            1 RES     
    7613 HW1         43.1830    15.6200    70.6440 HW1           1 RES     
    7614 HW2         43.0450    17.2470    70.6140 HW2           1 RES     
    7615 OW          23.5610    40.0200    69.3420 OW            1 RES     
    7616 HW1         24.4000    40.5650    69.3470 HW1           1 RES     
    7617 HW2         23.7940    39.0480    69.3160 HW2           1 RES     
    7618 OW          38.5450    30.5370    68.0510 OW            1 RES     
    7619 HW1         37.8580    29.8180    67.9490 HW1           1 RES     
    7620 HW2         38.8470    30.8410    67.1480 HW2           1 RES     
    7621 OW           9.6330    52.8850    69.7660 OW            1 RES     
    7622 HW1          9.2500    52.0060    69.4840 HW1           1 RES     
    7623 HW2          9.2850    53.1250    70.6730 HW2           1 RES     
    7624 OW          29.6070    43.3570    73.7670 OW            1 RES     
    7625 HW1         29.0770    42.5110    73.7200 HW1           1 RES     
    7626 HW2         30.5830    43.1390    73.7840 HW2           1 RES     
    7627 OW          11.9950    47.7350    77.3120 OW            1 RES     
    7628 HW1         11.8450    48.4830    76.6670 HW1           1 RES     
    7629 HW2         11.5980    46.8930    76.9460 HW2           1 RES     
    7630 OW          23.1450    10.7370    72.5470 OW            1 RES     
    7631 HW1         22.1500    10.6590    72.4960 HW1           1 RES     
    7632 HW2         23.5610     9.8510    72.3400 HW2           1 RES     
    7633 OW          54.2780    18.1790    73.4180 OW            1 RES     
    7634 HW1         54.7820    18.4410    74.2400 HW1           1 RES     
    7635 HW2         54.7400    18.5490    72.6110 HW2           1 RES     
    7636 OW           7.3450    39.8700    74.3580 OW            1 RES     
    7637 HW1          7.5740    40.4270    73.5600 HW1           1 RES     
    7638 HW2          6.3610    39.9170    74.5270 HW2           1 RES     
    7639 OW          30.7790    14.3780    68.1660 OW            1 RES     
    7640 HW1         31.5380    14.0360    68.7190 HW1           1 RES     
    7641 HW2         30.9660    15.3210    67.8900 HW2           1 RES     
    7642 OW          16.9380    23.5520    68.1100 OW            1 RES     
    7643 HW1         16.2420    23.1090    68.6740 HW1           1 RES     
    7644 HW2         16.7130    23.4250    67.1430 HW2           1 RES     
    7645 OW           8.7150    53.9840    74.2060 OW            1 RES     
    7646 HW1          8.3560    53.2550    73.6230 HW1           1 RES     
    7647 HW2          9.4630    54.4510    73.7330 HW2           1 RES     
    7648 OW          39.3760    17.8290    71.7930 OW            1 RES     
    7649 HW1         38.6130    17.7730    71.1490 HW1           1 RES     
    7650 HW2         39.1460    17.3290    72.6280 HW2           1 RES     
    7651 OW          13.3940    31.6290    78.5410 OW            1 RES     
    7652 HW1         13.2730    31.3320    77.5940 HW1           1 RES     
    7653 HW2         14.3610    31.5610    78.7900 HW2           1 RES     
    7654 OW          29.6540    38.8440    76.1990 OW            1 RES     
    7655 HW1         30.5820    38.8560    75.8290 HW1           1 RES     
    7656 HW2         29.5480    38.0590    76.8100 HW2           1 RES     
    7657 OW          24.3300     2.5000    75.2620 OW            1 RES     
    7658 HW1         25.1080     2.7280    74.6780 HW1           1 RES     
    7659 HW2         24.0170     3.3230    75.7370 HW2           1 RES     
    7660 OW          36.3620    30.6130    76.5460 OW            1 RES     
    7661 HW1         36.2300    29.6240    76.5980 HW1           1 RES     
    7662 HW2         37.3410    30.8180    76.5140 HW2           1 RES     
    7663 OW          11.8860     8.9140    74.9570 OW            1 RES     
    7664 HW1         10.9070     8.9440    74.7620 HW1           1 RES     
    7665 HW2         12.3550     9.6160    74.4200 HW2           1 RES     
    7666 OW          23.5150     5.3780    74.6590 OW            1 RES     
    7667 HW1         23.3160     5.9560    75.4500 HW1           1 RES     
    7668 HW2         22.7850     4.7030    74.5470 HW2           1 RES     
    7669 OW          33.3200    42.0530    73.4330 OW            1 RES     
    7670 HW1         32.5820    41.5680    73.9000 HW1           1 RES     
    7671 HW2         33.5210    41.5990    72.5650 HW2           1 RES     
    7672 OW          33.5210    33.8070    76.7590 OW            1 RES     
    7673 HW1         32.9430    34.4850    76.3070 HW1           1 RES     
    7674 HW2         33.3040    32.8960    76.4080 HW2           1 RES     
    7675 OW          25.6260    44.9130    68.6790 OW            1 RES     
    7676 HW1         24.7920    45.3740    68.3780 HW1           1 RES     
    7677 HW2         25.5190    43.9240    68.5710 HW2           1 RES     
    7678 OW          21.5940    49.2060    78.6240 OW            1 RES     
    7679 HW1         22.5220    49.5270    78.8120 HW1           1 RES     
    7680 HW2         21.0050    49.9890    78.4220 HW2           1 RES     
    7681 OW          52.5520    14.7070    68.9940 OW            1 RES     
    7682 HW1         53.3780    15.1590    69.3280 HW1           1 RES     
    7683 HW2         52.5090    13.7770    69.3600 HW2           1 RES     
    7684 OW          52.9940    36.3680    78.4240 OW            1 RES     
    7685 HW1         52.3520    36.8420    77.8230 HW1           1 RES     
    7686 HW2         53.6380    37.0280    78.8120 HW2           1 RES     
    7687 OW          14.7550    48.9820    72.9480 OW            1 RES     
    7688 HW1         15.2790    48.6840    72.1500 HW1           1 RES     
    7689 HW2         14.7720    48.2640    73.6440 HW2           1 RES     
    7690 OW          19.5560    14.7750    67.1070 OW            1 RES     
    7691 HW1         18.9550    15.3240    67.6860 HW1           1 RES     
    7692 HW2         19.6480    13.8580    67.4960 HW2           1 RES     
    7693 OW          32.3410     7.9020    75.0870 OW            1 RES     
    7694 HW1         32.3040     7.9220    74.0880 HW1           1 RES     
    7695 HW2         32.0680     6.9970    75.4130 HW2           1 RES     
    7696 OW          10.7780    25.2000    77.9100 OW            1 RES     
    7697 HW1         11.1880    25.3310    78.8120 HW1           1 RES     
    7698 HW2          9.9830    24.5990    77.9880 HW2           1 RES     
    7699 OW          38.4070    15.9330    76.6420 OW            1 RES     
    7700 HW1         38.8430    16.8270    76.7370 HW1           1 RES     
    7701 HW2         37.9040    15.8970    75.7780 HW2           1 RES     
    7702 OW          18.6260    43.8050    71.2990 OW            1 RES     
    7703 HW1         19.0210    44.1980    72.1290 HW1           1 RES     
    7704 HW2         19.1090    42.9610    71.0660 HW2           1 RES     
    7705 OW          22.8880     7.5770    71.9910 OW            1 RES     
    7706 HW1         22.8720     7.5240    72.9890 HW1           1 RES     
    7707 HW2         21.9990     7.3000    71.6280 HW2           1 RES     
    7708 OW          50.7760     6.4800    72.4660 OW            1 RES     
    7709 HW1         51.0930     5.7790    71.8280 HW1           1 RES     
    7710 HW2         50.1690     7.1160    71.9880 HW2           1 RES     
    7711 OW           6.0710    31.1650    68.0520 OW            1 RES     
    7712 HW1          5.9260    30.7480    68.9490 HW1           1 RES     
    7713 HW2          6.8740    31.7610    68.0870 HW2           1 RES     
    7714 OW          39.4330    44.7720    73.5950 OW            1 RES     
    7715 HW1         38.8530    43.9590    73.6370 HW1           1 RES     
    7716 HW2         40.3530    44.5120    73.3040 HW2           1 RES     
    7717 OW          21.1240    52.3540    69.0960 OW            1 RES     
    7718 HW1         21.0780    51.5620    68.4870 HW1           1 RES     
    7719 HW2         20.2070    52.7330    69.2190 HW2           1 RES     
    7720 OW          36.1920    29.1160    72.5030 OW            1 RES     
    7721 HW1         36.6450    28.2760    72.7980 HW1           1 RES     
    7722 HW2         36.8810    29.8130    72.2990 HW2           1 RES     
    7723 OW           9.4090    20.9950    68.7840 OW            1 RES     
    7724 HW1         10.3380    20.8920    68.4300 HW1           1 RES     
    7725 HW2          8.7930    21.2490    68.0380 HW2           1 RES     
    7726 OW          35.3320    29.3690    69.9540 OW            1 RES     
    7727 HW1         35.7770    28.7510    69.3060 HW1           1 RES     
    7728 HW2         34.4450    29.6540    69.5900 HW2           1 RES     
    7729 OW          48.5840    37.7370    74.8040 OW            1 RES     
    7730 HW1         49.5270    38.0590    74.7210 HW1           1 RES     
    7731 HW2         48.2520    37.4440    73.9080 HW2           1 RES     
    7732 OW           3.3740    44.5280    73.5050 OW            1 RES     
    7733 HW1          3.5020    43.5410    73.5930 HW1           1 RES     
    7734 HW2          2.5190    44.7130    73.0190 HW2           1 RES     
    7735 OW           9.7530    23.9070    71.8380 OW            1 RES     
    7736 HW1          9.0240    23.4710    72.3660 HW1           1 RES     
    7737 HW2          9.8010    24.8780    72.0750 HW2           1 RES     
    7738 OW          13.4390     4.9750    74.3980 OW            1 RES     
    7739 HW1         13.7190     5.2330    73.4740 HW1           1 RES     
    7740 HW2         12.5800     5.4340    74.6270 HW2           1 RES     
    7741 OW          53.8810    14.3570    71.5960 OW            1 RES     
    7742 HW1         54.7750    14.2190    71.1700 HW1           1 RES     
    7743 HW2         53.8230    15.2880    71.9560 HW2           1 RES     
    7744 OW          50.0070    29.9630    77.5740 OW            1 RES     
    7745 HW1         50.6480    30.6910    77.3330 HW1           1 RES     
    7746 HW2         49.1050    30.3570    77.7500 HW2           1 RES     
    7747 OW          44.4340    41.2070    74.5170 OW            1 RES     
    7748 HW1         45.2050    41.8420    74.4990 HW1           1 RES     
    7749 HW2         44.4620    40.6710    75.3610 HW2           1 RES     
    7750 OW           9.3920    20.5600    70.9400 OW            1 RES     
    7751 HW1          8.7960    20.3620    71.7180 HW1           1 RES     
    7752 HW2         10.1030    21.2050    71.2200 HW2           1 RES     
    7753 OW           7.1780    42.7480    67.1070 OW            1 RES     
    7754 HW1          7.7170    42.7980    67.9470 HW1           1 RES     
    7755 HW2          6.2040    42.7600    67.3350 HW2           1 RES     
    7756 OW          43.3810    39.4240    77.8920 OW            1 RES     
    7757 HW1         42.8590    38.6240    77.5980 HW1           1 RES     
    7758 HW2         43.8860    39.2040    78.7280 HW2           1 RES     
    7759 OW          31.6080    30.9610    72.8860 OW            1 RES     
    7760 HW1         30.6640    30.8950    73.2080 HW1           1 RES     
    7761 HW2         32.2330    30.7770    73.6450 HW2           1 RES     
    7762 OW          35.5620    22.5900    68.6630 OW            1 RES     
    7763 HW1         36.4830    22.2030    68.6790 HW1           1 RES     
    7764 HW2         34.8890    21.8520    68.7180 HW2           1 RES     
    7765 OW          43.1210    15.7150    78.8110 OW            1 RES     
    7766 HW1         43.3720    16.0270    77.8960 HW1           1 RES     
    7767 HW2         42.9590    14.7280    78.7950 HW2           1 RES     
    7768 OW           4.6920    43.8620    78.2020 OW            1 RES     
    7769 HW1          5.5300    44.1240    77.7240 HW1           1 RES     
    7770 HW2          4.7570    42.9060    78.4890 HW2           1 RES     
    7771 OW          53.8970    19.9440    70.1680 OW            1 RES     
    7772 HW1         53.5370    20.7160    70.6900 HW1           1 RES     
    7773 HW2         54.6820    20.2450    69.6260 HW2           1 RES     
    7774 OW          25.6730     2.6540    68.1060 OW            1 RES     
    7775 HW1         25.9910     2.5950    67.1610 HW1           1 RES     
    7776 HW2         24.6850     2.5000    68.1370 HW2           1 RES     
    7777 OW          28.2140     7.1360    69.6280 OW            1 RES     
    7778 HW1         27.8240     7.8470    70.2120 HW1           1 RES     
    7779 HW2         29.1840     7.0210    69.8430 HW2           1 RES     
    7780 OW          48.2720     6.8220    68.0800 OW            1 RES     
    7781 HW1         47.8010     6.5200    68.9090 HW1           1 RES     
    7782 HW2         48.7270     7.6950    68.2550 HW2           1 RES     
    7783 OW          12.4240    20.7070    74.3790 OW            1 RES     
    7784 HW1         12.2680    21.0230    75.3140 HW1           1 RES     
    7785 HW2         12.3260    19.7130    74.3410 HW2           1 RES     
    7786 OW           4.6140     8.1360    73.7410 OW            1 RES     
    7787 HW1          4.9650     7.6380    74.5330 HW1           1 RES     
    7788 HW2          4.1140     7.5070    73.1450 HW2           1 RES     
    7789 OW          11.7120    36.7300    77.8490 OW            1 RES     
    7790 HW1         12.3550    37.3270    78.3280 HW1           1 RES     
    7791 HW2         11.2100    37.2610    77.1660 HW2           1 RES     
    7792 OW          47.0090    46.2040    76.3820 OW            1 RES     
    7793 HW1         46.2670    46.3630    77.0320 HW1           1 RES     
    7794 HW2         46.8710    46.7720    75.5710 HW2           1 RES     
    7795 OW          47.4660    29.6630    69.4650 OW            1 RES     
    7796 HW1         47.9820    28.8440    69.7150 HW1           1 RES     
    7797 HW2         47.3590    30.2490    70.2690 HW2           1 RES     
    7798 OW           7.3250    48.8880    69.7210 OW            1 RES     
    7799 HW1          6.9390    48.0830    70.1720 HW1           1 RES     
    7800 HW2          7.9330    49.3660    70.3550 HW2           1 RES     
    7801 OW          38.9450    54.2080    71.6470 OW            1 RES     
    7802 HW1         38.0660    53.7350    71.5960 HW1           1 RES     
    7803 HW2         39.6560    53.5610    71.9250 HW2           1 RES     
    7804 OW          29.5670    45.5940    68.5400 OW            1 RES     
    7805 HW1         29.4200    45.9890    67.6340 HW1           1 RES     
    7806 HW2         29.5230    44.5970    68.4810 HW2           1 RES     
    7807 OW          46.2790    23.2840    68.4300 OW            1 RES     
    7808 HW1         46.2400    23.2840    67.4310 HW1           1 RES     
    7809 HW2         46.8980    24.0060    68.7400 HW2           1 RES     
    7810 OW          25.5100    37.9730    73.6720 OW            1 RES     
    7811 HW1         25.1970    37.1020    74.0480 HW1           1 RES     
    7812 HW2         24.8010    38.3550    73.0790 HW2           1 RES     
    7813 OW          10.8750    53.5770    78.5410 OW            1 RES     
    7814 HW1         11.7910    53.9190    78.7480 HW1           1 RES     
    7815 HW2         10.1950    54.2630    78.8020 HW2           1 RES     
    7816 OW          45.4360    37.3170    75.0780 OW            1 RES     
    7817 HW1         46.0930    37.3990    74.3300 HW1           1 RES     
    7818 HW2         45.2170    36.3520    75.2260 HW2           1 RES     
    7819 OW          14.4610    12.4160    68.6050 OW            1 RES     
    7820 HW1         15.3780    12.8150    68.5950 HW1           1 RES     
    7821 HW2         13.9390    12.8000    69.3670 HW2           1 RES     
    7822 OW          44.0360    17.6460    68.6890 OW            1 RES     
    7823 HW1         44.9250    17.7370    69.1370 HW1           1 RES     
    7824 HW2         44.0940    18.0030    67.7560 HW2           1 RES     
    7825 OW          50.7290    17.1500    72.1960 OW            1 RES     
    7826 HW1         49.7650    17.3860    72.0780 HW1           1 RES     
    7827 HW2         50.9450    16.3430    71.6460 HW2           1 RES     
    7828 OW           2.5580    37.8580    76.2380 OW            1 RES     
    7829 HW1          3.3490    38.4580    76.1180 HW1           1 RES     
    7830 HW2          2.8700    36.9330    76.4540 HW2           1 RES     
    7831 OW          37.1900    12.2450    71.4400 OW            1 RES     
    7832 HW1         37.2610    11.4610    72.0570 HW1           1 RES     
    7833 HW2         37.2570    13.0920    71.9680 HW2           1 RES     
    7834 OW           3.1180    26.9710    74.9030 OW            1 RES     
    7835 HW1          2.8520    26.0080    74.8910 HW1           1 RES     
    7836 HW2          4.1160    27.0420    74.9200 HW2           1 RES     
    7837 OW          22.0550    18.1120    69.0390 OW            1 RES     
    7838 HW1         21.0670    17.9660    69.0120 HW1           1 RES     
    7839 HW2         22.5200    17.2310    69.1330 HW2           1 RES     
    7840 OW          31.1670    47.4050    71.7410 OW            1 RES     
    7841 HW1         31.3520    48.3420    72.0350 HW1           1 RES     
    7842 HW2         30.9810    46.8340    72.5410 HW2           1 RES     
    7843 OW          54.0630    54.3980    74.4200 OW            1 RES     
    7844 HW1         53.1260    54.1580    74.6730 HW1           1 RES     
    7845 HW2         54.5530    53.5740    74.1340 HW2           1 RES     
    7846 OW          26.5220    32.7940    68.7910 OW            1 RES     
    7847 HW1         26.6800    31.8250    68.9780 HW1           1 RES     
    7848 HW2         25.5380    32.9700    68.7510 HW2           1 RES     
    7849 OW          27.6990     8.9010    75.6210 OW            1 RES     
    7850 HW1         27.8660     9.4780    74.8220 HW1           1 RES     
    7851 HW2         26.7200     8.7090    75.6960 HW2           1 RES     
    7852 OW          12.6670    11.6040    72.9840 OW            1 RES     
    7853 HW1         13.2870    12.3870    73.0250 HW1           1 RES     
    7854 HW2         13.1840    10.7810    72.7480 HW2           1 RES     
    7855 OW          30.4150    44.9440    70.4690 OW            1 RES     
    7856 HW1         30.6130    44.2500    71.1610 HW1           1 RES     
    7857 HW2         29.9950    45.7400    70.9060 HW2           1 RES     
    7858 OW          23.0260    37.2180    73.7090 OW            1 RES     
    7859 HW1         22.4370    37.7460    73.0990 HW1           1 RES     
    7860 HW2         22.8490    37.4840    74.6570 HW2           1 RES     
    7861 OW          13.5900    38.6780    67.9580 OW            1 RES     
    7862 HW1         13.8860    39.6180    67.7940 HW1           1 RES     
    7863 HW2         14.3880    38.0760    67.9840 HW2           1 RES     
    7864 OW          47.3850    36.7940    70.7850 OW            1 RES     
    7865 HW1         48.3250    37.0340    71.0260 HW1           1 RES     
    7866 HW2         47.3620    35.8650    70.4160 HW2           1 RES     
    7867 OW           7.9310    11.7730    68.0730 OW            1 RES     
    7868 HW1          7.3430    10.9690    67.9940 HW1           1 RES     
    7869 HW2          7.3680    12.6000    68.0610 HW2           1 RES     
    7870 OW          53.8450     5.2840    75.6960 OW            1 RES     
    7871 HW1         53.8510     6.2830    75.6860 HW1           1 RES     
    7872 HW2         54.7860     4.9450    75.7050 HW2           1 RES     
    7873 OW          38.5570    24.6780    77.0800 OW            1 RES     
    7874 HW1         38.4080    24.6010    76.0950 HW1           1 RES     
    7875 HW2         38.8330    23.7890    77.4470 HW2           1 RES     
    7876 OW          42.2000    40.0950    72.5770 OW            1 RES     
    7877 HW1         42.1740    39.1230    72.3430 HW1           1 RES     
    7878 HW2         43.1440    40.3660    72.7670 HW2           1 RES     
    7879 OW          47.4810    20.5280    67.9130 OW            1 RES     
    7880 HW1         47.1410    19.6670    67.5360 HW1           1 RES     
    7881 HW2         46.7080    21.0960    68.1970 HW2           1 RES     
    7882 OW          17.2240    46.4810    70.6310 OW            1 RES     
    7883 HW1         17.0750    47.4000    70.2680 HW1           1 RES     
    7884 HW2         17.3500    45.8400    69.8740 HW2           1 RES     
    7885 OW          37.4550    32.5440    72.0900 OW            1 RES     
    7886 HW1         37.2700    33.4720    72.4110 HW1           1 RES     
    7887 HW2         37.3240    31.8980    72.8420 HW2           1 RES     
    7888 OW          19.7580    35.2430    77.1270 OW            1 RES     
    7889 HW1         20.7110    35.5380    77.0590 HW1           1 RES     
    7890 HW2         19.7220    34.2460    77.2000 HW2           1 RES     
    7891 OW          34.4390    28.9480    77.8140 OW            1 RES     
    7892 HW1         35.1930    29.0700    78.4580 HW1           1 RES     
    7893 HW2         34.6470    28.1910    77.1950 HW2           1 RES     
    7894 OW          37.7900    49.3300    76.1000 OW            1 RES     
    7895 HW1         38.3820    48.7630    75.5290 HW1           1 RES     
    7896 HW2         38.3410    50.0160    76.5760 HW2           1 RES     
    7897 OW          12.2800    22.2760    70.1570 OW            1 RES     
    7898 HW1         12.8110    23.0570    69.8310 HW1           1 RES     
    7899 HW2         11.3500    22.3300    69.7930 HW2           1 RES     
    7900 OW          47.3540     7.2470    73.7130 OW            1 RES     
    7901 HW1         46.7120     6.5210    73.4680 HW1           1 RES     
    7902 HW2         46.8790     8.1280    73.7100 HW2           1 RES     
    7903 OW          25.3020     3.9500    72.4320 OW            1 RES     
    7904 HW1         25.3720     4.4280    73.3070 HW1           1 RES     
    7905 HW2         26.0590     3.3030    72.3430 HW2           1 RES     
    7906 OW          12.3150    26.7090    76.2680 OW            1 RES     
    7907 HW1         11.3330    26.5230    76.2420 HW1           1 RES     
    7908 HW2         12.8200    25.8660    76.0830 HW2           1 RES     
    7909 OW          41.8430    47.9640    67.7450 OW            1 RES     
    7910 HW1         42.2780    47.7590    68.6210 HW1           1 RES     
    7911 HW2         40.8500    47.8840    67.8380 HW2           1 RES     
    7912 OW          38.1070    23.1700    71.2780 OW            1 RES     
    7913 HW1         38.6770    22.6380    70.6520 HW1           1 RES     
    7914 HW2         38.0050    22.6730    72.1400 HW2           1 RES     
    7915 OW          54.7840    22.4970    75.8740 OW            1 RES     
    7916 HW1         54.4970    23.4530    75.9330 HW1           1 RES     
    7917 HW2         54.0800    21.9120    76.2780 HW2           1 RES     
    7918 OW          46.8030    49.7860    78.1690 OW            1 RES     
    7919 HW1         47.6080    49.4800    78.6760 HW1           1 RES     
    7920 HW2         46.0490    49.9470    78.8060 HW2           1 RES     
    7921 OW          25.6020    38.8110    76.7020 OW            1 RES     
    7922 HW1         26.5300    39.0100    76.3890 HW1           1 RES     
    7923 HW2         24.9430    39.1600    76.0350 HW2           1 RES     
    7924 OW           8.9980    23.7060    74.5530 OW            1 RES     
    7925 HW1          9.4780    24.5280    74.2490 HW1           1 RES     
    7926 HW2          8.0110    23.8580    74.5020 HW2           1 RES     
    7927 OW          19.9420     8.3620    73.7560 OW            1 RES     
    7928 HW1         19.9190     9.3350    73.9820 HW1           1 RES     
    7929 HW2         20.8870     8.0340    73.7880 HW2           1 RES     
    7930 OW          50.3990    21.4400    69.6880 OW            1 RES     
    7931 HW1         50.1610    22.3660    69.3950 HW1           1 RES     
    7932 HW2         49.8350    20.7780    69.1950 HW2           1 RES     
    7933 OW          52.2420     7.4810    77.7070 OW            1 RES     
    7934 HW1         52.1220     6.9260    76.8850 HW1           1 RES     
    7935 HW2         53.1860     7.4030    78.0280 HW2           1 RES     
    7936 OW           4.7940    50.9830    69.8530 OW            1 RES     
    7937 HW1          5.1710    50.1800    69.3920 HW1           1 RES     
    7938 HW2          4.1450    51.4420    69.2460 HW2           1 RES     
    7939 OW           5.3520    24.9050    67.9400 OW            1 RES     
    7940 HW1          4.3860    25.1530    68.0080 HW1           1 RES     
    7941 HW2          5.5020    24.3720    67.1070 HW2           1 RES     
    7942 OW          53.5750    51.3940    78.2640 OW            1 RES     
    7943 HW1         53.8000    51.6990    77.3400 HW1           1 RES     
    7944 HW2         52.6440    51.0280    78.2780 HW2           1 RES     
    7945 OW           8.4140    33.4760    75.8950 OW            1 RES     
    7946 HW1          8.9250    34.0970    75.3020 HW1           1 RES     
    7947 HW2          8.5200    32.5370    75.5670 HW2           1 RES     
    7948 OW          45.2570    16.1120    67.6910 OW            1 RES     
    7949 HW1         44.8150    15.4210    67.1190 HW1           1 RES     
    7950 HW2         45.7890    16.7330    67.1140 HW2           1 RES     
    7951 OW          51.4660    49.8510    76.3700 OW            1 RES     
    7952 HW1         50.5950    50.3390    76.3510 HW1           1 RES     
    7953 HW2         51.2970    48.8650    76.3930 HW2           1 RES     
    7954 OW          23.9730    25.4190    70.2120 OW            1 RES     
    7955 HW1         24.1190    24.4640    69.9530 HW1           1 RES     
    7956 HW2         24.4490    25.6080    71.0720 HW2           1 RES     
    7957 OW          33.7780    23.5570    75.0050 OW            1 RES     
    7958 HW1         33.4700    24.5000    75.1290 HW1           1 RES     
    7959 HW2         32.9880    22.9440    75.0070 HW2           1 RES     
    7960 OW          24.7970    35.0510    68.8160 OW            1 RES     
    7961 HW1         25.7860    35.1560    68.7140 HW1           1 RES     
    7962 HW2         24.5550    35.1010    69.7850 HW2           1 RES     
    7963 OW          34.6700    30.2600    67.4600 OW            1 RES     
    7964 HW1         34.4560    29.3050    67.2610 HW1           1 RES     
    7965 HW2         33.8950    30.8380    67.2020 HW2           1 RES     
    7966 OW          13.8130    54.7860    78.6990 OW            1 RES     
    7967 HW1         14.6510    54.2520    78.8110 HW1           1 RES     
    7968 HW2         13.5430    54.7850    77.7360 HW2           1 RES     
    7969 OW          13.0240     7.4260    73.7140 OW            1 RES     
    7970 HW1         12.0590     7.2600    73.5170 HW1           1 RES     
    7971 HW2         13.4750     7.7860    72.8970 HW2           1 RES     
    7972 OW          30.3180     2.9600    71.3710 OW            1 RES     
    7973 HW1         29.3990     3.3480    71.4340 HW1           1 RES     
    7974 HW2         30.9700     3.6820    71.1360 HW2           1 RES     
    7975 OW           6.5170    27.5480    77.3300 OW            1 RES     
    7976 HW1          6.3000    26.6360    76.9830 HW1           1 RES     
    7977 HW2          6.0580    27.6900    78.2070 HW2           1 RES     
    7978 OW          41.7850    42.7010    68.9560 OW            1 RES     
    7979 HW1         40.9100    43.1290    68.7340 HW1           1 RES     
    7980 HW2         42.4430    42.8880    68.2260 HW2           1 RES     
    7981 OW          41.0000    26.3570    75.4330 OW            1 RES     
    7982 HW1         41.9970    26.4250    75.4290 HW1           1 RES     
    7983 HW2         40.6030    27.2510    75.2230 HW2           1 RES     
    7984 OW          30.5460    11.3260    76.5400 OW            1 RES     
    7985 HW1         29.9050    10.5600    76.5380 HW1           1 RES     
    7986 HW2         30.0390    12.1860    76.4730 HW2           1 RES     
    7987 OW          44.5170    47.5420    72.6380 OW            1 RES     
    7988 HW1         44.4110    47.9840    71.7470 HW1           1 RES     
    7989 HW2         43.6240    47.4670    73.0820 HW2           1 RES     
    7990 OW          42.3910    36.5630    68.2390 OW            1 RES     
    7991 HW1         43.2180    36.2460    68.7010 HW1           1 RES     
    7992 HW2         42.3010    36.0980    67.3580 HW2           1 RES     
    7993 OW          12.4910    18.0070    75.7210 OW            1 RES     
    7994 HW1         11.8350    17.5780    75.1020 HW1           1 RES     
    7995 HW2         13.1820    17.3370    75.9930 HW2           1 RES     
    7996 OW          10.3800    51.8010    75.3630 OW            1 RES     
    7997 HW1          9.4720    52.2060    75.2570 HW1           1 RES     
    7998 HW2         10.9240    51.9820    74.5430 HW2           1 RES     
    7999 OW          42.3410    33.7510    69.0700 OW            1 RES     
    8000 HW1         43.1650    33.9060    69.6130 HW1           1 RES     
    8001 HW2         41.8040    34.5940    69.0310 HW2           1 RES     
    8002 OW          13.2290    35.3120    75.7010 OW            1 RES     
    8003 HW1         14.0060    35.0420    75.1350 HW1           1 RES     
    8004 HW2         13.2650    36.2970    75.8710 HW2           1 RES     
    8005 OW           7.1510     3.7830    67.3570 OW            1 RES     
    8006 HW1          6.7510     4.5090    67.9170 HW1           1 RES     
    8007 HW2          6.4960     3.0330    67.2650 HW2           1 RES     
    8008 OW          15.5840    51.3960    75.0830 OW            1 RES     
    8009 HW1         15.6520    50.8970    74.2200 HW1           1 RES     
    8010 HW2         15.8670    52.3450    74.9430 HW2           1 RES     
    8011 OW          52.0500    35.5090    75.4580 OW            1 RES     
    8012 HW1         52.8100    34.8640    75.3920 HW1           1 RES     
    8013 HW2         51.7850    35.8070    74.5400 HW2           1 RES     
    8014 OW          19.9900    24.6240    75.7980 OW            1 RES     
    8015 HW1         20.3880    23.7110    75.8820 HW1           1 RES     
    8016 HW2         20.7200    25.3070    75.7750 HW2           1 RES     
    8017 OW          28.3180    39.7790    77.9910 OW            1 RES     
    8018 HW1         28.5500    40.3090    78.8060 HW1           1 RES     
    8019 HW2         28.0870    38.8430    78.2560 HW2           1 RES     
    8020 OW          42.3000    33.3420    76.0400 OW            1 RES     
    8021 HW1         42.5240    34.2920    76.2540 HW1           1 RES     
    8022 HW2         43.0100    32.9560    75.4500 HW2           1 RES     
    8023 OW          38.9880     3.0100    75.2940 OW            1 RES     
    8024 HW1         38.1290     2.5000    75.3030 HW1           1 RES     
    8025 HW2         39.6740     2.5000    74.7750 HW2           1 RES     
    8026 OW          31.7160    49.3950    75.9880 OW            1 RES     
    8027 HW1         31.6750    50.3940    76.0130 HW1           1 RES     
    8028 HW2         32.6680    49.1030    75.8870 HW2           1 RES     
    8029 OW          27.3410    48.7870    69.6560 OW            1 RES     
    8030 HW1         26.4340    48.8960    69.2510 HW1           1 RES     
    8031 HW2         27.9420    49.5180    69.3310 HW2           1 RES     
    8032 OW          41.8400    36.2510    78.6940 OW            1 RES     
    8033 HW1         41.5010    36.1120    77.7640 HW1           1 RES     
    8034 HW2         42.8020    36.5220    78.6620 HW2           1 RES     
    8035 OW          38.2480    42.9430    76.3700 OW            1 RES     
    8036 HW1         39.0330    42.3330    76.2650 HW1           1 RES     
    8037 HW2         37.5450    42.7020    75.7010 HW2           1 RES     
    8038 OW          20.0820    36.4860    70.5020 OW            1 RES     
    8039 HW1         20.1520    35.6300    71.0120 HW1           1 RES     
    8040 HW2         19.1310    36.7940    70.4940 HW2           1 RES     
    8041 OW          23.7490    16.8650    72.8130 OW            1 RES     
    8042 HW1         23.6050    17.7650    72.4040 HW1           1 RES     
    8043 HW2         22.9890    16.6510    73.4260 HW2           1 RES     
    8044 OW           8.6370    41.3190    70.6180 OW            1 RES     
    8045 HW1          9.3330    41.5890    69.9530 HW1           1 RES     
    8046 HW2          8.1840    40.4840    70.3050 HW2           1 RES     
    8047 OW          34.6850    51.8120    73.2250 OW            1 RES     
    8048 HW1         34.2740    52.7130    73.0940 HW1           1 RES     
    8049 HW2         34.0000    51.1830    73.5940 HW2           1 RES     
    8050 OW          14.6340    21.1430    67.4070 OW            1 RES     
    8051 HW1         13.9610    21.8360    67.6610 HW1           1 RES     
    8052 HW2         15.5250    21.5770    67.2680 HW2           1 RES     
    8053 OW          12.7320    12.5390    76.6690 OW            1 RES     
    8054 HW1         11.7780    12.5300    76.9670 HW1           1 RES     
    8055 HW2         12.8810    11.8090    76.0020 HW2           1 RES     
    8056 OW          45.1890    45.5290    78.7730 OW            1 RES     
    8057 HW1         44.2000    45.6690    78.8120 HW1           1 RES     
    8058 HW2         45.3870    44.5480    78.7640 HW2           1 RES     
    8059 OW          17.6460    20.2760    74.0650 OW            1 RES     
    8060 HW1         16.9660    21.0060    74.1300 HW1           1 RES     
    8061 HW2         18.5640    20.6670    74.1420 HW2           1 RES     
    8062 OW           6.6290    40.3410    78.7520 OW            1 RES     
    8063 HW1          7.5900    40.5860    78.6290 HW1           1 RES     
    8064 HW2          6.0770    41.1720    78.8120 HW2           1 RES     
    8065 OW          46.1430    31.9210    78.4420 OW            1 RES     
    8066 HW1         46.3380    32.9010    78.4620 HW1           1 RES     
    8067 HW2         46.9850    31.4170    78.2470 HW2           1 RES     
    8068 OW           5.7750    21.7310    70.5270 OW            1 RES     
    8069 HW1          6.4730    21.1190    70.1580 HW1           1 RES     
    8070 HW2          4.8680    21.3520    70.3450 HW2           1 RES     
    8071 OW          38.0480    28.3760    71.1070 OW            1 RES     
    8072 HW1         38.1370    28.4380    70.1130 HW1           1 RES     
    8073 HW2         38.6950    27.7000    71.4590 HW2           1 RES     
    8074 OW          25.9880    19.2790    75.7030 OW            1 RES     
    8075 HW1         25.3060    18.5510    75.6580 HW1           1 RES     
    8076 HW2         25.5290    20.1680    75.7000 HW2           1 RES     
    8077 OW          42.9520    13.0280    70.9290 OW            1 RES     
    8078 HW1         42.2870    12.3060    71.1150 HW1           1 RES     
    8079 HW2         43.7750    12.8740    71.4760 HW2           1 RES     
    8080 OW          51.3620    28.6810    76.4070 OW            1 RES     
    8081 HW1         52.0120    28.0490    75.9850 HW1           1 RES     
    8082 HW2         50.9390    29.2470    75.6990 HW2           1 RES     
    8083 OW          44.3210    46.3320    75.5400 OW            1 RES     
    8084 HW1         43.3370    46.1540    75.5280 HW1           1 RES     
    8085 HW2         44.4810    47.3190    75.5390 HW2           1 RES     
    8086 OW          40.7730    15.2090    71.2350 OW            1 RES     
    8087 HW1         40.1980    14.7300    71.8970 HW1           1 RES     
    8088 HW2         40.2970    16.0250    70.9070 HW2           1 RES     
    8089 OW          53.3810    28.1210    68.2000 OW            1 RES     
    8090 HW1         52.4020    27.9630    68.0790 HW1           1 RES     
    8091 HW2         53.5540    29.1030    68.2790 HW2           1 RES     
    8092 OW          15.0010    25.4700    72.2890 OW            1 RES     
    8093 HW1         14.0730    25.8250    72.3950 HW1           1 RES     
    8094 HW2         14.9670    24.4780    72.1650 HW2           1 RES     
    8095 OW          42.3080    13.5700    72.9630 OW            1 RES     
    8096 HW1         42.1580    14.5580    72.9700 HW1           1 RES     
    8097 HW2         41.4300    13.0990    73.0530 HW2           1 RES     
    8098 OW          39.6330    48.0540    70.0760 OW            1 RES     
    8099 HW1         40.6130    47.8590    70.0790 HW1           1 RES     
    8100 HW2         39.1220    47.1970    70.0060 HW2           1 RES     
    8101 OW          11.6400    24.0160    67.1080 OW            1 RES     
    8102 HW1         10.6850    24.3000    67.1950 HW1           1 RES     
    8103 HW2         11.7580    23.1110    67.5180 HW2           1 RES     
    8104 OW          54.6930    26.2620    74.7490 OW            1 RES     
    8105 HW1         54.5780    25.8980    73.8250 HW1           1 RES     
    8106 HW2         54.3740    25.5880    75.4150 HW2           1 RES     
    8107 OW          42.8090    42.4460    73.4030 OW            1 RES     
    8108 HW1         43.7120    42.8350    73.2250 HW1           1 RES     
    8109 HW2         42.1820    42.7080    72.6690 HW2           1 RES     
    8110 OW          26.9550    27.6840    75.2190 OW            1 RES     
    8111 HW1         27.0600    28.3880    74.5170 HW1           1 RES     
    8112 HW2         27.1230    28.0820    76.1200 HW2           1 RES     
    8113 OW          18.0070    11.7310    70.4260 OW            1 RES     
    8114 HW1         18.1850    11.8950    71.3960 HW1           1 RES     
    8115 HW2         17.0330    11.5460    70.2920 HW2           1 RES     
    8116 OW          27.9080    13.6820    72.0010 OW            1 RES     
    8117 HW1         28.1810    13.5050    72.9460 HW1           1 RES     
    8118 HW2         27.8470    14.6680    71.8500 HW2           1 RES     
    8119 OW           6.0350    10.5580    77.8590 OW            1 RES     
    8120 HW1          6.2070    11.4690    77.4850 HW1           1 RES     
    8121 HW2          6.9070    10.0990    78.0320 HW2           1 RES     
    8122 OW          43.8190    44.6670    67.1150 OW            1 RES     
    8123 HW1         42.8230    44.7440    67.1070 HW1           1 RES     
    8124 HW2         44.2220    45.5630    67.3030 HW2           1 RES     
    8125 OW          29.3230    51.4750    67.1240 OW            1 RES     
    8126 HW1         30.0610    50.8020    67.1420 HW1           1 RES     
    8127 HW2         28.4410    51.0040    67.1070 HW2           1 RES     
    8128 OW           7.1980    38.6780    68.0450 OW            1 RES     
    8129 HW1          6.8210    37.7610    68.1640 HW1           1 RES     
    8130 HW2          8.1030    38.6150    67.6240 HW2           1 RES     
    8131 OW          49.2550    13.5590    73.4690 OW            1 RES     
    8132 HW1         50.2260    13.7950    73.4530 HW1           1 RES     
    8133 HW2         49.1490    12.5700    73.3690 HW2           1 RES     
    8134 OW          32.2370    45.2360    67.1100 OW            1 RES     
    8135 HW1         31.2960    44.9180    67.2180 HW1           1 RES     
    8136 HW2         32.2630    46.2330    67.1920 HW2           1 RES     
    8137 OW          39.0020    50.7580    70.5670 OW            1 RES     
    8138 HW1         39.1130    51.5890    71.1100 HW1           1 RES     
    8139 HW2         38.6680    50.0180    71.1520 HW2           1 RES     
    8140 OW           6.3740    32.4680    75.0880 OW            1 RES     
    8141 HW1          6.0940    31.5260    75.2720 HW1           1 RES     
    8142 HW2          5.5690    33.0170    74.8610 HW2           1 RES     
    8143 OW          11.9040    41.6600    67.1070 OW            1 RES     
    8144 HW1         12.0630    40.6750    67.1610 HW1           1 RES     
    8145 HW2         12.7780    42.1430    67.1670 HW2           1 RES     
    8146 OW          24.5930    48.5340    75.3770 OW            1 RES     
    8147 HW1         24.5090    47.6110    75.7510 HW1           1 RES     
    8148 HW2         23.9040    48.6690    74.6640 HW2           1 RES     
    8149 OW          19.3010     2.5010    74.6960 OW            1 RES     
    8150 HW1         18.4300     2.8320    75.0560 HW1           1 RES     
    8151 HW2         19.4470     2.8710    73.7780 HW2           1 RES     
    8152 OW          33.5380    37.1320    74.2530 OW            1 RES     
    8153 HW1         32.8020    37.8010    74.1590 HW1           1 RES     
    8154 HW2         33.2630    36.2700    73.8260 HW2           1 RES     
    8155 OW           4.7670     5.2470    74.8390 OW            1 RES     
    8156 HW1          3.9030     5.7450    74.8930 HW1           1 RES     
    8157 HW2          4.5850     4.2640    74.8030 HW2           1 RES     
    8158 OW           7.8420    13.7330    69.9470 OW            1 RES     
    8159 HW1          8.5950    13.0870    69.8220 HW1           1 RES     
    8160 HW2          7.5510    13.7250    70.9040 HW2           1 RES     
    8161 OW          38.5990    52.7510    69.2990 OW            1 RES     
    8162 HW1         39.1920    52.1950    68.7180 HW1           1 RES     
    8163 HW2         37.7590    52.2460    69.4990 HW2           1 RES     
    8164 OW          30.2910    42.7120    69.6210 OW            1 RES     
    8165 HW1         30.7050    41.8030    69.6580 HW1           1 RES     
    8166 HW2         29.2950    42.6240    69.5910 HW2           1 RES     
    8167 OW          18.5770    45.6390    78.3720 OW            1 RES     
    8168 HW1         19.1250    44.9890    77.8470 HW1           1 RES     
    8169 HW2         17.8180    45.1580    78.8110 HW2           1 RES     
    8170 OW          28.6460    44.4610    72.1250 OW            1 RES     
    8171 HW1         28.2490    45.3530    72.3350 HW1           1 RES     
    8172 HW2         27.9440    43.7540    72.2110 HW2           1 RES     
    8173 OW           6.1250    48.6730    72.1450 OW            1 RES     
    8174 HW1          5.6420    49.5490    72.1370 HW1           1 RES     
    8175 HW2          5.4620    47.9270    72.2020 HW2           1 RES     
    8176 OW          43.1240    14.3440    75.9510 OW            1 RES     
    8177 HW1         42.9260    15.3200    75.8610 HW1           1 RES     
    8178 HW2         42.2710    13.8240    75.9050 HW2           1 RES     
    8179 OW          14.7610    51.8210    71.4290 OW            1 RES     
    8180 HW1         14.9830    52.7610    71.6880 HW1           1 RES     
    8181 HW2         14.7450    51.2440    72.2460 HW2           1 RES     
    8182 OW          25.7680     8.9560    67.4040 OW            1 RES     
    8183 HW1         25.7970     9.3160    68.3350 HW1           1 RES     
    8184 HW2         24.8790     8.5280    67.2380 HW2           1 RES     
    8185 OW          15.8930    28.2610    69.3770 OW            1 RES     
    8186 HW1         15.6470    29.0890    69.8800 HW1           1 RES     
    8187 HW2         16.8550    28.3080    69.1060 HW2           1 RES     
    8188 OW          39.0350    25.5310    73.6210 OW            1 RES     
    8189 HW1         38.2580    24.9860    73.9340 HW1           1 RES     
    8190 HW2         39.5020    25.0520    72.8780 HW2           1 RES     
    8191 OW           2.7240    24.2250    70.6220 OW            1 RES     
    8192 HW1          2.5020    23.5020    69.9700 HW1           1 RES     
    8193 HW2          2.5000    25.1150    70.2230 HW2           1 RES     
    8194 OW          41.8390    30.8130    67.3050 OW            1 RES     
    8195 HW1         42.6010    30.1670    67.2970 HW1           1 RES     
    8196 HW2         40.9860    30.3270    67.1170 HW2           1 RES     
    8197 OW          47.6680    19.2050    73.5360 OW            1 RES     
    8198 HW1         46.9140    19.6900    73.0940 HW1           1 RES     
    8199 HW2         48.5120    19.3620    73.0230 HW2           1 RES     
    8200 OW          48.9930    40.2180    68.2180 OW            1 RES     
    8201 HW1         48.2310    40.8630    68.1680 HW1           1 RES     
    8202 HW2         48.6580    39.2920    68.0440 HW2           1 RES     
    8203 OW          19.6140    13.2480    70.4120 OW            1 RES     
    8204 HW1         18.8180    13.8370    70.5490 HW1           1 RES     
    8205 HW2         19.6120    12.8970    69.4750 HW2           1 RES     
    8206 OW          11.0950     5.8820    77.4130 OW            1 RES     
    8207 HW1         11.4930     5.6370    76.5290 HW1           1 RES     
    8208 HW2         11.7700     5.7350    78.1360 HW2           1 RES     
    8209 OW          35.2730    36.4830    75.4400 OW            1 RES     
    8210 HW1         34.9000    35.5590    75.3620 HW1           1 RES     
    8211 HW2         36.2700    36.4350    75.5110 HW2           1 RES     
    8212 OW          54.3810    12.3220    76.7110 OW            1 RES     
    8213 HW1         54.6380    11.7750    77.5070 HW1           1 RES     
    8214 HW2         54.7830    13.2340    76.7880 HW2           1 RES     
    8215 OW          34.5850    12.4120    71.2410 OW            1 RES     
    8216 HW1         35.1010    11.5610    71.3330 HW1           1 RES     
    8217 HW2         35.2200    13.1780    71.1380 HW2           1 RES     
    8218 OW          49.1880     7.2990    75.9300 OW            1 RES     
    8219 HW1         48.2980     6.8850    76.1180 HW1           1 RES     
    8220 HW2         49.8980     6.8100    76.4380 HW2           1 RES     
    8221 OW          42.6260    50.5270    76.1600 OW            1 RES     
    8222 HW1         43.4400    50.1070    76.5600 HW1           1 RES     
    8223 HW2         42.5550    50.2670    75.1970 HW2           1 RES     
    8224 OW          36.6350    20.7990    75.1630 OW            1 RES     
    8225 HW1         37.5010    20.3130    75.0530 HW1           1 RES     
    8226 HW2         36.1110    20.3840    75.9060 HW2           1 RES     
    8227 OW          38.6780    28.8020    78.1710 OW            1 RES     
    8228 HW1         37.8580    29.3730    78.1630 HW1           1 RES     
    8229 HW2         38.5260    28.0080    78.7600 HW2           1 RES     
    8230 OW          23.2630    54.0570    68.2030 OW            1 RES     
    8231 HW1         22.4810    53.5500    67.8440 HW1           1 RES     
    8232 HW2         24.0890    53.7930    67.7050 HW2           1 RES     
    8233 OW          48.9830    11.5910    68.8330 OW            1 RES     
    8234 HW1         49.3950    10.6920    68.6920 HW1           1 RES     
    8235 HW2         49.7030    12.2840    68.8820 HW2           1 RES     
    8236 OW          43.8280    25.5360    74.0300 OW            1 RES     
    8237 HW1         43.9400    25.4780    75.0220 HW1           1 RES     
    8238 HW2         42.9220    25.1960    73.7760 HW2           1 RES     
    8239 OW          39.2970    25.4910    70.3390 OW            1 RES     
    8240 HW1         39.8920    25.3350    69.5510 HW1           1 RES     
    8241 HW2         38.3550    25.6130    70.0260 HW2           1 RES     
    8242 OW          49.7410    11.4890    75.5060 OW            1 RES     
    8243 HW1         50.4220    10.7700    75.6390 HW1           1 RES     
    8244 HW2         50.2020    12.3490    75.2880 HW2           1 RES     
    8245 OW          25.2220     6.7650    74.7000 OW            1 RES     
    8246 HW1         25.1330     7.1880    75.6010 HW1           1 RES     
    8247 HW2         26.0680     7.0770    74.2670 HW2           1 RES     
    8248 OW          15.4710    18.4990    67.9840 OW            1 RES     
    8249 HW1         14.8610    18.1580    68.6980 HW1           1 RES     
    8250 HW2         14.9320    18.9510    67.2730 HW2           1 RES     
    8251 OW          24.0060    53.5710    70.6480 OW            1 RES     
    8252 HW1         24.7520    53.0690    71.0840 HW1           1 RES     
    8253 HW2         23.4550    52.9410    70.1000 HW2           1 RES     
    8254 OW          32.6940     9.5500    67.7730 OW            1 RES     
    8255 HW1         33.4620    10.1330    67.5090 HW1           1 RES     
    8256 HW2         33.0330     8.7690    68.2980 HW2           1 RES     
    8257 OW          38.1320    40.6500    73.8690 OW            1 RES     
    8258 HW1         37.1940    40.5470    73.5420 HW1           1 RES     
    8259 HW2         38.1300    40.7530    74.8640 HW2           1 RES     
    8260 OW          30.2770    50.0250    77.9420 OW            1 RES     
    8261 HW1         30.3420    50.5180    78.8090 HW1           1 RES     
    8262 HW2         29.8690    50.6190    77.2490 HW2           1 RES     
    8263 OW           2.5030    26.9240    67.3430 OW            1 RES     
    8264 HW1          2.5450    25.9540    67.1070 HW1           1 RES     
    8265 HW2          3.4290    27.2760    67.4790 HW2           1 RES     
    8266 OW          40.1020    38.4660    72.6950 OW            1 RES     
    8267 HW1         39.4790    38.0600    72.0280 HW1           1 RES     
    8268 HW2         39.5750    38.8630    73.4470 HW2           1 RES     
    8269 OW          54.7840    23.5710    69.8640 OW            1 RES     
    8270 HW1         54.6710    22.8990    69.1330 HW1           1 RES     
    8271 HW2         54.0630    24.2610    69.7990 HW2           1 RES     
    8272 OW          48.1660    31.0860    67.6430 OW            1 RES     
    8273 HW1         48.6850    30.2360    67.7260 HW1           1 RES     
    8274 HW2         47.1890    30.8780    67.5990 HW2           1 RES     
    8275 OW          18.6920    39.1450    71.8290 OW            1 RES     
    8276 HW1         19.5180    38.7460    71.4320 HW1           1 RES     
    8277 HW2         18.2900    39.7940    71.1820 HW2           1 RES     
    8278 OW          44.2920    49.8850    67.7130 OW            1 RES     
    8279 HW1         43.3420    49.5740    67.7150 HW1           1 RES     
    8280 HW2         44.8940    49.1150    67.5010 HW2           1 RES     
    8281 OW          32.8910    20.6170    69.3990 OW            1 RES     
    8282 HW1         33.4790    19.8080    69.3910 HW1           1 RES     
    8283 HW2         32.3500    20.6450    68.5590 HW2           1 RES     
    8284 OW          20.5430     3.9410    71.4720 OW            1 RES     
    8285 HW1         19.6250     3.6640    71.1910 HW1           1 RES     
    8286 HW2         20.5650     4.9320    71.6080 HW2           1 RES     
    8287 OW          27.7340    35.8040    70.5790 OW            1 RES     
    8288 HW1         27.9480    36.7550    70.8010 HW1           1 RES     
    8289 HW2         28.2110    35.5420    69.7390 HW2           1 RES     
    8290 OW          12.7080     2.7720    72.8490 OW            1 RES     
    8291 HW1         12.2550     3.6480    73.0080 HW1           1 RES     
    8292 HW2         13.6670     2.8360    73.1280 HW2           1 RES     
    8293 OW          38.6160    37.7960    75.5670 OW            1 RES     
    8294 HW1         39.4350    37.2890    75.8320 HW1           1 RES     
    8295 HW2         38.8280    38.7720    75.5170 HW2           1 RES     
    8296 OW          52.8600    41.4840    76.1500 OW            1 RES     
    8297 HW1         53.6020    40.9600    76.5670 HW1           1 RES     
    8298 HW2         52.5840    42.2200    76.7680 HW2           1 RES     
    8299 OW          47.0580    28.7820    77.1910 OW            1 RES     
    8300 HW1         47.1240    29.7200    76.8540 HW1           1 RES     
    8301 HW2         47.7460    28.6330    77.9020 HW2           1 RES     
    8302 OW          35.1150    13.3640    73.3320 OW            1 RES     
    8303 HW1         34.8560    12.4040    73.4240 HW1           1 RES     
    8304 HW2         34.3080    13.9420    73.4620 HW2           1 RES     
    8305 OW          34.2900    16.6570    73.2770 OW            1 RES     
    8306 HW1         35.0190    16.8280    73.9380 HW1           1 RES     
    8307 HW2         33.7990    17.5090    73.0930 HW2           1 RES     
    8308 OW          22.7730    10.6660    78.7660 OW            1 RES     
    8309 HW1         21.8620    10.2610    78.6930 HW1           1 RES     
    8310 HW2         22.6940    11.6630    78.7820 HW2           1 RES     
    8311 OW          41.9090    33.0810    73.0570 OW            1 RES     
    8312 HW1         41.4930    33.3810    73.9140 HW1           1 RES     
    8313 HW2         41.3600    32.3460    72.6590 HW2           1 RES     
    8314 OW          16.1010    17.2930    74.2520 OW            1 RES     
    8315 HW1         15.7520    17.3060    75.1880 HW1           1 RES     
    8316 HW2         16.0580    18.2150    73.8670 HW2           1 RES     
    8317 OW          13.6510    52.0570    69.2040 OW            1 RES     
    8318 HW1         13.9440    53.0130    69.2100 HW1           1 RES     
    8319 HW2         14.4540    51.4610    69.2150 HW2           1 RES     
    8320 OW          30.6420    21.9710    74.0940 OW            1 RES     
    8321 HW1         30.3220    22.6490    73.4340 HW1           1 RES     
    8322 HW2         29.8800    21.3810    74.3640 HW2           1 RES     
    8323 OW          41.6030    23.8880    71.1730 OW            1 RES     
    8324 HW1         40.6200    23.7190    71.1150 HW1           1 RES     
    8325 HW2         41.7770    24.6310    71.8190 HW2           1 RES     
    8326 OW          21.8200    40.0560    67.1160 OW            1 RES     
    8327 HW1         21.5770    39.0950    67.2400 HW1           1 RES     
    8328 HW2         21.1170    40.6340    67.5320 HW2           1 RES     
    8329 OW          10.9980    33.3570    76.1660 OW            1 RES     
    8330 HW1         11.8710    32.9960    76.4940 HW1           1 RES     
    8331 HW2         11.1390    34.2650    75.7720 HW2           1 RES     
    8332 OW          45.1250     6.3210    75.9480 OW            1 RES     
    8333 HW1         45.4800     5.6320    75.3170 HW1           1 RES     
    8334 HW2         45.2500     6.0080    76.8900 HW2           1 RES     
    8335 OW          43.8630     7.5120    78.3740 OW            1 RES     
    8336 HW1         43.1130     7.0170    78.8110 HW1           1 RES     
    8337 HW2         43.6480     8.4880    78.3450 HW2           1 RES     
    8338 OW          39.0130    22.9250    74.0870 OW            1 RES     
    8339 HW1         39.7450    22.4720    73.5790 HW1           1 RES     
    8340 HW2         39.0270    22.6170    75.0380 HW2           1 RES     
    8341 OW          18.8570    50.4710    78.4010 OW            1 RES     
    8342 HW1         17.8580    50.4870    78.4220 HW1           1 RES     
    8343 HW2         19.2140    51.3110    78.8090 HW2           1 RES     
    8344 OW          15.6650    32.5890    74.1290 OW            1 RES     
    8345 HW1         16.4420    31.9610    74.1040 HW1           1 RES     
    8346 HW2         15.9500    33.4870    73.7920 HW2           1 RES     
    8347 OW          46.3650    44.4350    72.5630 OW            1 RES     
    8348 HW1         47.1570    43.8500    72.7310 HW1           1 RES     
    8349 HW2         45.5330    43.8800    72.5650 HW2           1 RES     
    8350 OW          14.6790    15.5530    74.3940 OW            1 RES     
    8351 HW1         15.5580    15.1090    74.5610 HW1           1 RES     
    8352 HW2         13.9580    14.8610    74.3470 HW2           1 RES     
    8353 OW           5.7900    50.7650    75.0530 OW            1 RES     
    8354 HW1          5.0370    50.2350    75.4420 HW1           1 RES     
    8355 HW2          5.8730    50.5600    74.0770 HW2           1 RES     
    8356 OW           9.6490    24.2070    69.3250 OW            1 RES     
    8357 HW1         10.4950    24.3910    69.8250 HW1           1 RES     
    8358 HW2          9.3800    23.2540    69.4630 HW2           1 RES     
    8359 OW          40.8300    12.3980    75.0500 OW            1 RES     
    8360 HW1         39.9690    12.8540    75.2710 HW1           1 RES     
    8361 HW2         40.6600    11.4270    74.8830 HW2           1 RES     
    8362 OW          38.6160    27.5150    76.2920 OW            1 RES     
    8363 HW1         38.3860    28.4480    76.0190 HW1           1 RES     
    8364 HW2         38.0680    26.8680    75.7620 HW2           1 RES     
    8365 OW          32.1980    23.8670    69.0610 OW            1 RES     
    8366 HW1         31.2360    23.9750    69.3120 HW1           1 RES     
    8367 HW2         32.3980    22.8980    68.9160 HW2           1 RES     
    8368 OW          51.1960    26.9270    72.1890 OW            1 RES     
    8369 HW1         51.0440    27.5460    71.4190 HW1           1 RES     
    8370 HW2         51.8940    26.2540    71.9440 HW2           1 RES     
    8371 OW          23.3300     9.9820    69.9450 OW            1 RES     
    8372 HW1         22.8520     9.1180    69.7860 HW1           1 RES     
    8373 HW2         22.6790    10.6700    70.2660 HW2           1 RES     
    8374 OW          41.7010    20.4650    71.1430 OW            1 RES     
    8375 HW1         42.4820    20.7730    70.6010 HW1           1 RES     
    8376 HW2         41.9800    19.7060    71.7300 HW2           1 RES     
    8377 OW          45.2600    28.5640    68.2000 OW            1 RES     
    8378 HW1         46.2390    28.5710    68.0010 HW1           1 RES     
    8379 HW2         44.8800    29.4760    68.0420 HW2           1 RES     
    8380 OW          53.0330    12.4130    71.0100 OW            1 RES     
    8381 HW1         52.7630    12.4180    71.9720 HW1           1 RES     
    8382 HW2         53.4680    11.5400    70.7890 HW2           1 RES     
    8383 OW          13.3460     8.9380    76.6020 OW            1 RES     
    8384 HW1         12.7940     9.7520    76.7770 HW1           1 RES     
    8385 HW2         14.3150     9.1620    76.7130 HW2           1 RES     
    8386 OW          27.3490    47.2300    67.9810 OW            1 RES     
    8387 HW1         27.4700    47.7800    67.1550 HW1           1 RES     
    8388 HW2         26.3780    47.0210    68.1020 HW2           1 RES     
    8389 OW          14.9410    19.8100    78.8060 OW            1 RES     
    8390 HW1         14.3840    20.6100    78.5820 HW1           1 RES     
    8391 HW2         15.8260    19.8810    78.3460 HW2           1 RES     
    8392 OW          22.3350    51.7350    78.5710 OW            1 RES     
    8393 HW1         23.1980    52.1970    78.7700 HW1           1 RES     
    8394 HW2         21.5720    52.3350    78.8110 HW2           1 RES     
    8395 OW          51.5300    14.9290    78.4620 OW            1 RES     
    8396 HW1         51.8320    14.0400    78.8030 HW1           1 RES     
    8397 HW2         52.3220    15.5270    78.3400 HW2           1 RES     
    8398 OW          12.7340    30.5840    68.0350 OW            1 RES     
    8399 HW1         12.5440    29.6030    68.0400 HW1           1 RES     
    8400 HW2         11.9210    31.0810    67.7310 HW2           1 RES     
    8401 OW          47.5040    28.9260    72.2690 OW            1 RES     
    8402 HW1         48.2650    29.5700    72.1990 HW1           1 RES     
    8403 HW2         46.6390    29.4200    72.1750 HW2           1 RES     
    8404 OW          26.7090     5.4600    71.6350 OW            1 RES     
    8405 HW1         27.5770     5.6510    71.1770 HW1           1 RES     
    8406 HW2         26.3540     6.3030    72.0410 HW2           1 RES     
    8407 OW          52.9850    18.2880    78.5950 OW            1 RES     
    8408 HW1         52.1830    17.7220    78.4070 HW1           1 RES     
    8409 HW2         52.6930    19.2190    78.8120 HW2           1 RES     
    8410 OW           9.3770    17.6620    67.8360 OW            1 RES     
    8411 HW1          8.8420    16.8190    67.8730 HW1           1 RES     
    8412 HW2         10.3460    17.4480    67.9620 HW2           1 RES     
    8413 OW           6.7410    15.2800    73.3890 OW            1 RES     
    8414 HW1          7.2250    14.4060    73.4260 HW1           1 RES     
    8415 HW2          7.3320    15.9710    72.9730 HW2           1 RES     
    8416 OW          52.6220     3.4920    71.0030 OW            1 RES     
    8417 HW1         52.2800     2.7650    71.5980 HW1           1 RES     
    8418 HW2         51.8550     4.0400    70.6700 HW2           1 RES     
    8419 OW          31.7560    28.1260    76.7750 OW            1 RES     
    8420 HW1         32.5540    28.7240    76.7020 HW1           1 RES     
    8421 HW2         30.9230    28.6810    76.7790 HW2           1 RES     
    8422 OW          10.3930    10.0480    67.1830 OW            1 RES     
    8423 HW1         11.3870    10.1310    67.1350 HW1           1 RES     
    8424 HW2          9.9780    10.9550    67.1070 HW2           1 RES     
    8425 OW           4.8520     6.7780    70.2190 OW            1 RES     
    8426 HW1          5.5160     6.0670    70.4450 HW1           1 RES     
    8427 HW2          4.7990     7.4370    70.9700 HW2           1 RES     
    8428 OW           6.6660    41.5370    71.8920 OW            1 RES     
    8429 HW1          7.0950    42.3960    72.1690 HW1           1 RES     
    8430 HW2          5.6840    41.6800    71.7630 HW2           1 RES     
    8431 OW           8.5730    16.0470    71.1580 OW            1 RES     
    8432 HW1          7.6460    15.9990    70.7880 HW1           1 RES     
    8433 HW2          9.1320    15.3240    70.7530 HW2           1 RES     
    8434 OW          40.6910    27.8850    68.2130 OW            1 RES     
    8435 HW1         39.7480    27.5540    68.2060 HW1           1 RES     
    8436 HW2         41.1580    27.5450    69.0290 HW2           1 RES     
    8437 OW          28.3380    51.8860    78.6880 OW            1 RES     
    8438 HW1         27.4760    52.3420    78.4690 HW1           1 RES     
    8439 HW2         28.1750    50.9070    78.8120 HW2           1 RES     
    8440 OW          17.5950    15.5820    76.5430 OW            1 RES     
    8441 HW1         17.8680    14.6200    76.5330 HW1           1 RES     
    8442 HW2         16.5990    15.6470    76.4880 HW2           1 RES     
    8443 OW          14.6150    24.5260    75.5610 OW            1 RES     
    8444 HW1         15.3750    23.8920    75.7040 HW1           1 RES     
    8445 HW2         14.9470    25.4670    75.6320 HW2           1 RES     
    8446 OW          37.2870     8.6330    68.3780 OW            1 RES     
    8447 HW1         36.2890     8.6830    68.3580 HW1           1 RES     
    8448 HW2         37.6670     9.5580    68.4190 HW2           1 RES     
    8449 OW           3.2880    46.7670    71.4790 OW            1 RES     
    8450 HW1          2.5190    47.2320    71.9160 HW1           1 RES     
    8451 HW2          3.8850    46.3780    72.1810 HW2           1 RES     
    8452 OW          28.1990     5.0870    73.2110 OW            1 RES     
    8453 HW1         27.3990     5.1190    73.8100 HW1           1 RES     
    8454 HW2         28.6470     5.9820    73.2050 HW2           1 RES     
    8455 OW          17.0550    25.3060    69.4320 OW            1 RES     
    8456 HW1         16.5210    26.1470    69.3550 HW1           1 RES     
    8457 HW2         17.9470    25.4350    69.0000 HW2           1 RES     
    8458 OW          35.6170    42.9520    77.9070 OW            1 RES     
    8459 HW1         34.6790    42.7280    78.1680 HW1           1 RES     
    8460 HW2         35.7140    42.8790    76.9140 HW2           1 RES     
    8461 OW          44.1920    21.5380    78.8120 OW            1 RES     
    8462 HW1         43.3330    21.7000    78.3270 HW1           1 RES     
    8463 HW2         44.9550    21.8780    78.2620 HW2           1 RES     
    8464 OW          27.9670    22.6220    71.9050 OW            1 RES     
    8465 HW1         27.5590    23.4900    71.6240 HW1           1 RES     
    8466 HW2         27.4320    21.8640    71.5290 HW2           1 RES     
    8467 OW          29.8520    49.3720    70.4140 OW            1 RES     
    8468 HW1         29.4950    48.5320    70.8220 HW1           1 RES     
    8469 HW2         30.7880    49.2180    70.0980 HW2           1 RES     
    8470 OW          26.0680     8.8690    78.0290 OW            1 RES     
    8471 HW1         25.9540     9.8620    77.9980 HW1           1 RES     
    8472 HW2         25.1690     8.4310    78.0740 HW2           1 RES     
    8473 OW          18.3300     6.4340    76.2180 OW            1 RES     
    8474 HW1         19.0380     6.4910    75.5150 HW1           1 RES     
    8475 HW2         17.5670     5.8820    75.8790 HW2           1 RES     
    8476 OW           9.8940    43.6320    67.1080 OW            1 RES     
    8477 HW1         10.7950    43.6280    67.5400 HW1           1 RES     
    8478 HW2          9.2990    44.2830    67.5800 HW2           1 RES     
    8479 OW           3.4940    42.3460    69.3390 OW            1 RES     
    8480 HW1          2.5020    42.4330    69.4180 HW1           1 RES     
    8481 HW2          3.7490    41.3800    69.3930 HW2           1 RES     
    8482 OW          13.8910    33.8070    71.4890 OW            1 RES     
    8483 HW1         13.3540    34.5690    71.1290 HW1           1 RES     
    8484 HW2         14.4390    34.1220    72.2650 HW2           1 RES     
    8485 OW          39.0940    44.0570    67.7870 OW            1 RES     
    8486 HW1         39.8220    44.1340    67.1070 HW1           1 RES     
    8487 HW2         38.8220    43.0990    67.8780 HW2           1 RES     
    8488 OW          50.8610    43.2820    69.4190 OW            1 RES     
    8489 HW1         51.2720    42.6840    70.1060 HW1           1 RES     
    8490 HW2         50.8390    44.2210    69.7640 HW2           1 RES     
    8491 OW          17.5040    50.0460    71.4890 OW            1 RES     
    8492 HW1         18.4860    50.0970    71.6690 HW1           1 RES     
    8493 HW2         17.3480    49.5710    70.6220 HW2           1 RES     
    8494 OW          44.2250     8.1710    73.5800 OW            1 RES     
    8495 HW1         43.7900     7.6160    72.8720 HW1           1 RES     
    8496 HW2         44.7950     7.5870    74.1590 HW2           1 RES     
    8497 OW          16.8510    36.1830    76.7040 OW            1 RES     
    8498 HW1         16.2490    36.9700    76.8350 HW1           1 RES     
    8499 HW2         16.3030    35.3490    76.6470 HW2           1 RES     
    8500 OW          40.4940    20.7240    75.2230 OW            1 RES     
    8501 HW1         41.1610    19.9920    75.0850 HW1           1 RES     
    8502 HW2         39.6890    20.5540    74.6550 HW2           1 RES     
    8503 OW          40.3210    52.7020    74.5510 OW            1 RES     
    8504 HW1         40.3350    53.5480    74.0180 HW1           1 RES     
    8505 HW2         41.2060    52.5750    74.9990 HW2           1 RES     
    8506 OW          35.3550    31.2820    78.3850 OW            1 RES     
    8507 HW1         34.3890    31.1150    78.1940 HW1           1 RES     
    8508 HW2         35.5050    32.2610    78.5230 HW2           1 RES     
    8509 OW          33.8290    14.3510    69.9020 OW            1 RES     
    8510 HW1         34.2750    14.0940    69.0460 HW1           1 RES     
    8511 HW2         33.1800    15.0930    69.7310 HW2           1 RES     
    8512 OW          17.5760    21.8870    77.5320 OW            1 RES     
    8513 HW1         18.0700    22.7150    77.2710 HW1           1 RES     
    8514 HW2         17.8030    21.1480    76.8960 HW2           1 RES     
    8515 OW          47.5460    47.9470    71.4570 OW            1 RES     
    8516 HW1         47.4530    47.3550    70.6580 HW1           1 RES     
    8517 HW2         47.8980    48.8390    71.1720 HW2           1 RES     
    8518 OW          19.7680    47.4390    77.9450 OW            1 RES     
    8519 HW1         19.8690    48.3370    77.5170 HW1           1 RES     
    8520 HW2         20.5280    47.2820    78.5750 HW2           1 RES     
    8521 OW          15.8940    47.6800    78.3380 OW            1 RES     
    8522 HW1         16.6510    47.0470    78.4960 HW1           1 RES     
    8523 HW2         15.3030    47.3200    77.6160 HW2           1 RES     
    8524 OW          40.4980    33.4400    67.6080 OW            1 RES     
    8525 HW1         39.9820    32.7260    67.1350 HW1           1 RES     
    8526 HW2         41.3460    33.6240    67.1100 HW2           1 RES     
    8527 OW          12.8190    52.9460    72.0390 OW            1 RES     
    8528 HW1         12.2660    52.1570    71.7740 HW1           1 RES     
    8529 HW2         13.1460    52.8240    72.9760 HW2           1 RES     
    8530 OW           9.7750    51.6420    72.2220 OW            1 RES     
    8531 HW1          8.7930    51.5100    72.3570 HW1           1 RES     
    8532 HW2         10.2780    50.9350    72.7190 HW2           1 RES     
    8533 OW          36.5690     5.3530    75.4660 OW            1 RES     
    8534 HW1         36.1230     5.8530    74.7230 HW1           1 RES     
    8535 HW2         35.8750     4.9700    76.0750 HW2           1 RES     
    8536 OW          22.6430    52.7110    76.0280 OW            1 RES     
    8537 HW1         21.9050    52.8810    76.6800 HW1           1 RES     
    8538 HW2         22.6850    53.4610    75.3680 HW2           1 RES     
    8539 OW          25.8000    30.0560    78.4700 OW            1 RES     
    8540 HW1         25.9260    30.2580    77.4990 HW1           1 RES     
    8541 HW2         24.8470    30.2250    78.7240 HW2           1 RES     
    8542 OW          35.3910    26.1740    71.2200 OW            1 RES     
    8543 HW1         35.6530    26.4210    72.1530 HW1           1 RES     
    8544 HW2         35.9390    26.7000    70.5690 HW2           1 RES     
    8545 OW          30.6590     5.0410    73.8670 OW            1 RES     
    8546 HW1         30.9600     5.9650    73.6320 HW1           1 RES     
    8547 HW2         30.3340     4.5760    73.0430 HW2           1 RES     
    8548 OW          19.7640     3.0440    77.2990 OW            1 RES     
    8549 HW1         19.9170     3.6140    76.4910 HW1           1 RES     
    8550 HW2         18.9350     2.5000    77.1710 HW2           1 RES     
    8551 OW           8.7190    47.2830    69.1520 OW            1 RES     
    8552 HW1          7.9650    46.9000    68.6180 HW1           1 RES     
    8553 HW2          9.1420    46.5590    69.6970 HW2           1 RES     
    8554 OW          46.0920    17.5080    72.3480 OW            1 RES     
    8555 HW1         46.0360    16.5110    72.2960 HW1           1 RES     
    8556 HW2         46.9550    17.8150    71.9450 HW2           1 RES     
    8557 OW          21.8760    51.5630    74.3140 OW            1 RES     
    8558 HW1         21.4510    51.6830    73.4180 HW1           1 RES     
    8559 HW2         22.6050    50.8810    74.2500 HW2           1 RES     
    8560 OW          49.3290    34.2800    67.1090 OW            1 RES     
    8561 HW1         48.6310    33.5650    67.1110 HW1           1 RES     
    8562 HW2         48.8880    35.1780    67.1090 HW2           1 RES     
    8563 OW           7.9040    11.2310    73.6620 OW            1 RES     
    8564 HW1          8.1820    10.7170    74.4730 HW1           1 RES     
    8565 HW2          7.0620    10.8380    73.2910 HW2           1 RES     
    8566 OW          32.4010    36.5240    71.4710 OW            1 RES     
    8567 HW1         31.8600    35.9240    72.0600 HW1           1 RES     
    8568 HW2         33.3740    36.3290    71.6000 HW2           1 RES     
    8569 OW          52.8410     2.9470    74.3580 OW            1 RES     
    8570 HW1         52.7010     3.4720    75.1970 HW1           1 RES     
    8571 HW2         52.0400     3.0410    73.7670 HW2           1 RES     
    8572 OW           6.8070    21.6590    75.2510 OW            1 RES     
    8573 HW1          6.3700    22.5550    75.1720 HW1           1 RES     
    8574 HW2          7.8000    21.7680    75.2100 HW2           1 RES     
    8575 OW          34.5510    44.6970    74.1370 OW            1 RES     
    8576 HW1         34.3920    44.1830    73.2940 HW1           1 RES     
    8577 HW2         34.1510    45.6100    74.0520 HW2           1 RES     
    8578 OW          40.9200    16.1130    74.5120 OW            1 RES     
    8579 HW1         41.2400    16.6370    75.3010 HW1           1 RES     
    8580 HW2         40.9590    15.1360    74.7220 HW2           1 RES     
    8581 OW          47.6100    51.8370    78.3810 OW            1 RES     
    8582 HW1         47.1970    51.9390    77.4770 HW1           1 RES     
    8583 HW2         48.4100    52.4330    78.4520 HW2           1 RES     
    8584 OW          22.2340    40.0560    71.0960 OW            1 RES     
    8585 HW1         21.4080    39.6300    70.7300 HW1           1 RES     
    8586 HW2         22.7180    39.4010    71.6770 HW2           1 RES     
    8587 OW          52.9830    31.7300    78.4830 OW            1 RES     
    8588 HW1         53.5910    31.1580    77.9350 HW1           1 RES     
    8589 HW2         52.2090    31.1840    78.8030 HW2           1 RES     
    8590 OW          25.2140    22.2600    69.4500 OW            1 RES     
    8591 HW1         24.6850    22.1010    68.6170 HW1           1 RES     
    8592 HW2         25.9230    21.5590    69.5350 HW2           1 RES     
    8593 OW          33.6590    33.0740    67.1150 OW            1 RES     
    8594 HW1         34.3210    33.8230    67.1240 HW1           1 RES     
    8595 HW2         33.1810    33.0400    67.9930 HW2           1 RES     
    8596 OW          14.5990    33.9250    77.8280 OW            1 RES     
    8597 HW1         15.2170    33.1850    77.5660 HW1           1 RES     
    8598 HW2         14.4240    33.8810    78.8120 HW2           1 RES     
    8599 OW           8.8740     5.2320    78.6510 OW            1 RES     
    8600 HW1          8.5430     6.1610    78.8070 HW1           1 RES     
    8601 HW2          8.2210     4.7370    78.0770 HW2           1 RES     
    8602 OW          48.0120    34.7670    72.8050 OW            1 RES     
    8603 HW1         47.7040    35.7080    72.6720 HW1           1 RES     
    8604 HW2         47.2250    34.1510    72.7830 HW2           1 RES     
    8605 OW          45.9440    38.1700    71.7190 OW            1 RES     
    8606 HW1         46.3870    38.7980    72.3580 HW1           1 RES     
    8607 HW2         45.0030    38.0030    72.0130 HW2           1 RES     
    8608 OW          34.8990    17.6500    69.1090 OW            1 RES     
    8609 HW1         35.1220    18.4930    68.6190 HW1           1 RES     
    8610 HW2         33.9080    17.5850    69.2280 HW2           1 RES     
    8611 OW          11.8590     8.9860    68.9530 OW            1 RES     
    8612 HW1         12.1120     8.1560    68.4570 HW1           1 RES     
    8613 HW2         10.8660     9.0140    69.0720 HW2           1 RES     
    8614 OW          14.1980    46.2210    74.2260 OW            1 RES     
    8615 HW1         14.3140    45.3450    74.6920 HW1           1 RES     
    8616 HW2         13.6120    46.0980    73.4250 HW2           1 RES     
    8617 OW          40.1690    25.9640    77.8480 OW            1 RES     
    8618 HW1         39.6130    26.0970    78.6680 HW1           1 RES     
    8619 HW2         40.4930    26.8500    77.5170 HW2           1 RES     
    8620 OW          40.2900    48.9710    76.7580 OW            1 RES     
    8621 HW1         40.9240    49.4290    77.3800 HW1           1 RES     
    8622 HW2         39.6570    48.4030    77.2850 HW2           1 RES     
    8623 OW           4.6330    40.2420    67.1090 OW            1 RES     
    8624 HW1          3.9290    39.5630    67.3160 HW1           1 RES     
    8625 HW2          4.2680    41.1600    67.2660 HW2           1 RES     
    8626 OW          38.1070    20.7630    77.7970 OW            1 RES     
    8627 HW1         38.5710    21.6070    77.5300 HW1           1 RES     
    8628 HW2         37.1170    20.9120    77.7950 HW2           1 RES     
    8629 OW          52.0570    32.7160    75.1700 OW            1 RES     
    8630 HW1         51.1770    33.0110    74.7990 HW1           1 RES     
    8631 HW2         52.3770    31.9110    74.6700 HW2           1 RES     
    8632 OW          39.3020    19.3950    76.5550 OW            1 RES     
    8633 HW1         38.3960    18.9730    76.5510 HW1           1 RES     
    8634 HW2         40.0020    18.6830    76.4980 HW2           1 RES     
    8635 OW          14.8400    28.0570    76.9090 OW            1 RES     
    8636 HW1         14.9890    29.0450    76.9380 HW1           1 RES     
    8637 HW2         13.9230    27.8470    77.2480 HW2           1 RES     
    8638 OW          15.6510    41.0070    78.6070 OW            1 RES     
    8639 HW1         16.5590    40.6430    78.8120 HW1           1 RES     
    8640 HW2         15.6870    42.0070    78.5940 HW2           1 RES     
    8641 OW          20.2330    47.3790    71.7090 OW            1 RES     
    8642 HW1         19.6190    48.1630    71.6260 HW1           1 RES     
    8643 HW2         21.1750    47.6740    71.5490 HW2           1 RES     
    8644 OW          17.9950    34.1810    72.9330 OW            1 RES     
    8645 HW1         17.3980    34.8490    72.4890 HW1           1 RES     
    8646 HW2         18.1700    33.4220    72.3060 HW2           1 RES     
    8647 OW          34.9800     8.8020    72.2500 OW            1 RES     
    8648 HW1         34.6840     9.6070    72.7630 HW1           1 RES     
    8649 HW2         35.2870     8.0940    72.8860 HW2           1 RES     
    8650 OW          37.6580     2.8050    69.3280 OW            1 RES     
    8651 HW1         37.9890     3.6900    69.0030 HW1           1 RES     
    8652 HW2         37.5870     2.8210    70.3260 HW2           1 RES     
    8653 OW          41.0810    38.9540    76.2640 OW            1 RES     
    8654 HW1         40.7170    38.5480    77.1020 HW1           1 RES     
    8655 HW2         41.4170    38.2300    75.6610 HW2           1 RES     
    8656 OW          32.7750    12.3850    69.9890 OW            1 RES     
    8657 HW1         33.2360    12.1570    69.1320 HW1           1 RES     
    8658 HW2         31.8040    12.1580    69.9170 HW2           1 RES     
    8659 OW           6.4160    25.1900    75.3230 OW            1 RES     
    8660 HW1          6.0590    25.8210    74.6350 HW1           1 RES     
    8661 HW2          5.6550    24.7900    75.8340 HW2           1 RES     
    8662 OW          26.2930    52.2610    69.2320 OW            1 RES     
    8663 HW1         26.4640    51.2780    69.1840 HW1           1 RES     
    8664 HW2         25.3250    52.4410    69.0550 HW2           1 RES     
    8665 OW           7.1340    44.1340    73.7030 OW            1 RES     
    8666 HW1          7.8710    44.7970    73.8240 HW1           1 RES     
    8667 HW2          6.3000    44.6100    73.4230 HW2           1 RES     
    8668 OW          42.8430    43.4840    70.7190 OW            1 RES     
    8669 HW1         43.7480    43.5930    71.1300 HW1           1 RES     
    8670 HW2         42.2350    44.2040    71.0550 HW2           1 RES     
    8671 OW          21.8990    20.2230    76.2680 OW            1 RES     
    8672 HW1         22.8000    19.8090    76.1430 HW1           1 RES     
    8673 HW2         21.2140    19.5030    76.3810 HW2           1 RES     
    8674 OW          19.9930    21.7490    76.8100 OW            1 RES     
    8675 HW1         20.3920    21.1970    77.5410 HW1           1 RES     
    8676 HW2         19.8330    21.1750    76.0060 HW2           1 RES     
    8677 OW          10.6390    46.3470    72.4280 OW            1 RES     
    8678 HW1         11.5370    46.7180    72.6650 HW1           1 RES     
    8679 HW2         10.3740    46.6690    71.5190 HW2           1 RES     
    8680 OW          35.0230    19.8420    73.9520 OW            1 RES     
    8681 HW1         35.2740    18.9710    74.3720 HW1           1 RES     
    8682 HW2         34.5740    19.6730    73.0750 HW2           1 RES     
    8683 OW          19.2320     8.1600    67.1070 OW            1 RES     
    8684 HW1         18.3620     8.6360    67.2290 HW1           1 RES     
    8685 HW2         19.8200     8.3330    67.8970 HW2           1 RES     
    8686 OW           9.0710    45.2730    78.1980 OW            1 RES     
    8687 HW1          9.7120    44.6570    78.6550 HW1           1 RES     
    8688 HW2          9.4100    45.4890    77.2830 HW2           1 RES     
    8689 OW          24.1060    28.1680    68.3460 OW            1 RES     
    8690 HW1         23.9030    28.9930    67.8190 HW1           1 RES     
    8691 HW2         24.7800    28.3820    69.0540 HW2           1 RES     
    8692 OW          54.2170    10.9840    72.7900 OW            1 RES     
    8693 HW1         54.7840    11.3380    73.5340 HW1           1 RES     
    8694 HW2         54.7810    10.4330    72.1740 HW2           1 RES     
    8695 OW           5.9750    37.4250    73.1200 OW            1 RES     
    8696 HW1          6.6980    36.7360    73.1500 HW1           1 RES     
    8697 HW2          6.3810    38.3310    73.0020 HW2           1 RES     
    8698 OW          42.4090    37.6420    70.1950 OW            1 RES     
    8699 HW1         42.6100    37.3420    71.1270 HW1           1 RES     
    8700 HW2         42.0630    38.5810    70.2140 HW2           1 RES     
    8701 OW          22.0560    27.2090    75.9480 OW            1 RES     
    8702 HW1         21.5100    27.9830    76.2660 HW1           1 RES     
    8703 HW2         21.8470    27.0250    74.9880 HW2           1 RES     
    8704 OW          51.0610    12.3900    67.1530 OW            1 RES     
    8705 HW1         52.0480    12.5410    67.1600 HW1           1 RES     
    8706 HW2         50.8720    11.4100    67.2260 HW2           1 RES     
    8707 OW          46.4970     3.5300    74.7160 OW            1 RES     
    8708 HW1         45.5410     3.5990    74.4330 HW1           1 RES     
    8709 HW2         46.8460     2.6190    74.4950 HW2           1 RES     
    8710 OW          17.4600    19.0310    71.7320 OW            1 RES     
    8711 HW1         16.4700    19.0580    71.6000 HW1           1 RES     
    8712 HW2         17.8000    19.9580    71.8940 HW2           1 RES     
    8713 OW          20.0490    16.6580    73.4300 OW            1 RES     
    8714 HW1         19.5200    17.4310    73.0790 HW1           1 RES     
    8715 HW2         20.0750    15.9330    72.7420 HW2           1 RES     
    8716 OW          30.2490    20.7800    72.1090 OW            1 RES     
    8717 HW1         29.5070    20.1570    72.3560 HW1           1 RES     
    8718 HW2         29.8810    21.5460    71.5820 HW2           1 RES     
    8719 OW          34.0590    41.0420    68.4890 OW            1 RES     
    8720 HW1         33.8940    41.3050    67.5390 HW1           1 RES     
    8721 HW2         33.2540    41.2590    69.0410 HW2           1 RES     
    8722 OW          32.4070    21.2660    72.0640 OW            1 RES     
    8723 HW1         32.7520    21.9820    72.6700 HW1           1 RES     
    8724 HW2         33.1710    20.8510    71.5690 HW2           1 RES     
    8725 OW           5.1430    28.1900    68.5120 OW            1 RES     
    8726 HW1          4.8350    29.0410    68.0900 HW1           1 RES     
    8727 HW2          4.5400    27.9580    69.2760 HW2           1 RES     
    8728 OW          33.0350    28.1590    70.5470 OW            1 RES     
    8729 HW1         33.1250    27.1720    70.4200 HW1           1 RES     
    8730 HW2         32.0770    28.3880    70.7240 HW2           1 RES     
    8731 OW          49.4700    40.9130    77.8760 OW            1 RES     
    8732 HW1         49.1600    40.7470    78.8120 HW1           1 RES     
    8733 HW2         49.9590    41.7850    77.8370 HW2           1 RES     
    8734 OW          24.8350    24.0740    74.0090 OW            1 RES     
    8735 HW1         24.8810    23.7540    74.9550 HW1           1 RES     
    8736 HW2         24.8520    23.2890    73.3900 HW2           1 RES     
    8737 OW          10.0650    50.8480    78.4460 OW            1 RES     
    8738 HW1          9.7390    49.9310    78.2180 HW1           1 RES     
    8739 HW2         10.1470    51.3900    77.6090 HW2           1 RES     
    8740 OW          23.7490    30.3710    71.5910 OW            1 RES     
    8741 HW1         23.1240    29.8320    72.1550 HW1           1 RES     
    8742 HW2         24.6610    30.3620    72.0010 HW2           1 RES     
    8743 OW          48.4160    49.8690    74.3840 OW            1 RES     
    8744 HW1         48.7850    50.7430    74.6960 HW1           1 RES     
    8745 HW2         47.4200    49.8740    74.4810 HW2           1 RES     
    8746 OW          42.9920    36.5620    75.2830 OW            1 RES     
    8747 HW1         43.1230    36.9480    76.1950 HW1           1 RES     
    8748 HW2         42.0720    36.1770    75.2120 HW2           1 RES     
    8749 OW          12.8690    16.5670    67.8600 OW            1 RES     
    8750 HW1         12.3220    15.8070    68.2100 HW1           1 RES     
    8751 HW2         12.3830    17.0100    67.1070 HW2           1 RES     
    8752 OW          45.3850    19.6070    71.4200 OW            1 RES     
    8753 HW1         45.9980    19.3830    70.6620 HW1           1 RES     
    8754 HW2         44.5340    19.9880    71.0590 HW2           1 RES     
    8755 OW          39.3490     7.2010    70.7790 OW            1 RES     
    8756 HW1         39.5050     7.5960    71.6830 HW1           1 RES     
    8757 HW2         38.9210     7.8840    70.1860 HW2           1 RES     
    8758 OW          46.8710     8.3700    69.9840 OW            1 RES     
    8759 HW1         46.1780     9.0900    69.9540 HW1           1 RES     
    8760 HW2         47.7810     8.7800    69.9180 HW2           1 RES     
    8761 OW          54.7860     3.6120    69.4930 OW            1 RES     
    8762 HW1         53.9810     4.2010    69.4250 HW1           1 RES     
    8763 HW2         54.4970     2.6550    69.5300 HW2           1 RES     
    8764 OW          49.1540    24.7330    68.1730 OW            1 RES     
    8765 HW1         48.8820    24.1340    67.4210 HW1           1 RES     
    8766 HW2         49.0640    24.2430    69.0400 HW2           1 RES     
    8767 OW          10.0430    18.8940    69.6590 OW            1 RES     
    8768 HW1          9.7200    18.3530    70.4350 HW1           1 RES     
    8769 HW2         11.0030    19.1390    69.7980 HW2           1 RES     
    8770 OW          22.9860    46.6210    69.8890 OW            1 RES     
    8771 HW1         22.7250    46.1830    70.7490 HW1           1 RES     
    8772 HW2         22.4180    47.4310    69.7410 HW2           1 RES     
    8773 OW           4.9250    34.6530    72.2100 OW            1 RES     
    8774 HW1          4.7760    33.9050    71.5640 HW1           1 RES     
    8775 HW2          4.4710    35.4790    71.8760 HW2           1 RES     
    8776 OW          19.9440    45.5510    69.4210 OW            1 RES     
    8777 HW1         19.3610    46.2990    69.1080 HW1           1 RES     
    8778 HW2         20.8900    45.8690    69.4830 HW2           1 RES     
    8779 OW          23.0600    35.7610    76.0630 OW            1 RES     
    8780 HW1         22.3040    35.3550    75.5510 HW1           1 RES     
    8781 HW2         22.9400    35.5770    77.0390 HW2           1 RES     
    8782 OW          10.6580    27.7290    77.9870 OW            1 RES     
    8783 HW1         11.1260    28.3900    77.4010 HW1           1 RES     
    8784 HW2         11.2280    27.5300    78.7850 HW2           1 RES     
    8785 OW          17.4580    18.5460    75.8210 OW            1 RES     
    8786 HW1         18.3760    18.8630    75.5850 HW1           1 RES     
    8787 HW2         16.8860    19.3290    76.0640 HW2           1 RES     
    8788 OW          40.0480    30.4680    72.1230 OW            1 RES     
    8789 HW1         39.8190    29.5690    71.7500 HW1           1 RES     
    8790 HW2         39.7390    31.1800    71.4920 HW2           1 RES     
    8791 OW           2.9190    25.8550    72.2520 OW            1 RES     
    8792 HW1          2.5990    26.6330    72.7920 HW1           1 RES     
    8793 HW2          3.8340    26.0490    71.8960 HW2           1 RES     
    8794 OW          26.0520     4.2690    78.8120 OW            1 RES     
    8795 HW1         25.6310     3.6150    78.1840 HW1           1 RES     
    8796 HW2         26.5640     4.9510    78.2900 HW2           1 RES     
    8797 OW          49.0730    21.0740    78.0720 OW            1 RES     
    8798 HW1         49.7820    21.3240    77.4140 HW1           1 RES     
    8799 HW2         49.0290    21.7650    78.7940 HW2           1 RES     
    8800 OW          12.7760     3.4760    67.8960 OW            1 RES     
    8801 HW1         12.9320     2.5000    67.7470 HW1           1 RES     
    8802 HW2         11.8530     3.6160    68.2560 HW2           1 RES     
    8803 OW          14.2100    13.5120    77.9780 OW            1 RES     
    8804 HW1         14.8820    14.2490    77.9200 HW1           1 RES     
    8805 HW2         14.6500    12.6400    77.7630 HW2           1 RES     
    8806 OW          48.6910    42.5230    71.8800 OW            1 RES     
    8807 HW1         48.5690    41.5690    72.1530 HW1           1 RES     
    8808 HW2         49.3100    42.5680    71.0960 HW2           1 RES     
    8809 OW          17.6650    25.0920    73.6900 OW            1 RES     
    8810 HW1         17.8100    25.4080    72.7530 HW1           1 RES     
    8811 HW2         16.6840    25.0550    73.8820 HW2           1 RES     
    8812 OW          49.1020    26.1080    70.3370 OW            1 RES     
    8813 HW1         50.0260    25.7270    70.3490 HW1           1 RES     
    8814 HW2         49.1510    27.1050    70.3870 HW2           1 RES     
    8815 OW           6.5400    19.3930    68.3370 OW            1 RES     
    8816 HW1          5.8550    19.2050    69.0400 HW1           1 RES     
    8817 HW2          6.1950    20.0960    67.7140 HW2           1 RES     
    8818 OW          22.5070    45.3460    67.7390 OW            1 RES     
    8819 HW1         21.6390    45.5660    67.2960 HW1           1 RES     
    8820 HW2         23.0820    44.8260    67.1070 HW2           1 RES     
    8821 OW          14.7140     8.5950    70.0990 OW            1 RES     
    8822 HW1         14.4700     7.9240    69.3990 HW1           1 RES     
    8823 HW2         14.2710     9.4680    69.8930 HW2           1 RES     
    8824 OW           4.4820     3.5670    76.8870 OW            1 RES     
    8825 HW1          3.6300     3.4030    77.3830 HW1           1 RES     
    8826 HW2          5.0180     4.2640    77.3650 HW2           1 RES     
    8827 OW           5.1520    45.2390    70.7890 OW            1 RES     
    8828 HW1          5.7310    44.6030    71.2970 HW1           1 RES     
    8829 HW2          4.3130    44.7740    70.5060 HW2           1 RES     
    8830 OW          37.0690     5.5280    70.2160 OW            1 RES     
    8831 HW1         38.0660     5.4880    70.2690 HW1           1 RES     
    8832 HW2         36.7830     6.4620    69.9990 HW2           1 RES     
    8833 OW          32.3040    10.9960    73.7740 OW            1 RES     
    8834 HW1         31.4070    11.0710    74.2080 HW1           1 RES     
    8835 HW2         32.9300    11.6600    74.1850 HW2           1 RES     
    8836 OW          32.7380    44.5730    71.8970 OW            1 RES     
    8837 HW1         32.5420    45.2840    72.5720 HW1           1 RES     
    8838 HW2         32.4400    43.6860    72.2510 HW2           1 RES     
    8839 OW          17.5470     8.9300    69.3190 OW            1 RES     
    8840 HW1         18.0400     9.7970    69.3790 HW1           1 RES     
    8841 HW2         18.1970     8.1710    69.3730 HW2           1 RES     
    8842 OW          50.8480     8.0060    67.7580 OW            1 RES     
    8843 HW1         50.6740     7.2490    67.1300 HW1           1 RES     
    8844 HW2         51.0020     8.8450    67.2350 HW2           1 RES     
    8845 OW          53.5000    28.2470    73.7890 OW            1 RES     
    8846 HW1         53.8100    28.2770    74.7390 HW1           1 RES     
    8847 HW2         52.7150    28.8570    73.6750 HW2           1 RES     
    8848 OW          11.6600    49.2470    73.0050 OW            1 RES     
    8849 HW1         10.7880    48.7590    73.0020 HW1           1 RES     
    8850 HW2         12.3420    48.7090    73.5010 HW2           1 RES     
    8851 OW          10.8450    48.3960    69.7980 OW            1 RES     
    8852 HW1         10.8160    48.7950    68.8820 HW1           1 RES     
    8853 HW2         10.0170    48.6480    70.2980 HW2           1 RES     
    8854 OW          14.2110     5.5330    76.8730 OW            1 RES     
    8855 HW1         14.7190     4.9640    76.2270 HW1           1 RES     
    8856 HW2         13.7700     6.2840    76.3800 HW2           1 RES     
    8857 OW          37.5980    48.8160    72.6620 OW            1 RES     
    8858 HW1         38.0950    48.0690    72.2230 HW1           1 RES     
    8859 HW2         37.3430    48.5470    73.5910 HW2           1 RES     
    8860 OW          35.3300    41.4150    74.6340 OW            1 RES     
    8861 HW1         35.4410    42.3760    74.3820 HW1           1 RES     
    8862 HW2         36.0120    41.1700    75.3240 HW2           1 RES     
    8863 OW          40.1640    31.2260    77.7330 OW            1 RES     
    8864 HW1         40.4990    30.3050    77.5380 HW1           1 RES     
    8865 HW2         39.1750    31.1970    77.8850 HW2           1 RES     
    8866 OW          15.2560     6.4970    74.4130 OW            1 RES     
    8867 HW1         15.7550     5.6310    74.4030 HW1           1 RES     
    8868 HW2         15.5800     7.0600    75.1730 HW2           1 RES     
    8869 OW          38.5290    51.8010    77.8490 OW            1 RES     
    8870 HW1         38.9070    51.2650    78.6030 HW1           1 RES     
    8871 HW2         37.5410    51.8950    77.9680 HW2           1 RES     
    8872 OW          28.8420    32.8880    71.6520 OW            1 RES     
    8873 HW1         29.5730    32.2260    71.8160 HW1           1 RES     
    8874 HW2         28.4810    33.2110    72.5270 HW2           1 RES     
    8875 OW          52.5010     6.5240    73.8300 OW            1 RES     
    8876 HW1         51.9050     6.5880    74.6300 HW1           1 RES     
    8877 HW2         52.8380     5.5860    73.7380 HW2           1 RES     
    8878 OW          19.3940    28.8470    69.9570 OW            1 RES     
    8879 HW1         19.0520    29.3720    69.1780 HW1           1 RES     
    8880 HW2         18.6330    28.3740    70.4010 HW2           1 RES     
    8881 OW          30.4480    25.1650    78.2750 OW            1 RES     
    8882 HW1         30.3010    24.6120    77.4550 HW1           1 RES     
    8883 HW2         31.2090    24.7860    78.8020 HW2           1 RES     
    8884 OW          48.2520     3.3930    76.8450 OW            1 RES     
    8885 HW1         47.3460     3.0070    76.6770 HW1           1 RES     
    8886 HW2         48.4150     4.1510    76.2130 HW2           1 RES     
    8887 OW          18.5610    14.8270    74.4530 OW            1 RES     
    8888 HW1         19.0140    14.2860    73.7460 HW1           1 RES     
    8889 HW2         17.9600    15.5020    74.0240 HW2           1 RES     
    8890 OW          30.0180    34.7240    71.2820 OW            1 RES     
    8891 HW1         29.9400    34.3300    70.3670 HW1           1 RES     
    8892 HW2         29.8300    35.7050    71.2410 HW2           1 RES     
    8893 OW          23.2240    25.1040    76.0330 OW            1 RES     
    8894 HW1         23.4310    25.4790    76.9360 HW1           1 RES     
    8895 HW2         22.6860    24.2670    76.1330 HW2           1 RES     
    8896 OW          20.5070    37.9400    68.7760 OW            1 RES     
    8897 HW1         20.3430    37.0340    68.3860 HW1           1 RES     
    8898 HW2         21.3160    37.9080    69.3630 HW2           1 RES     
    8899 OW          23.7050    52.8820    73.0100 OW            1 RES     
    8900 HW1         23.0100    53.4780    72.6090 HW1           1 RES     
    8901 HW2         23.6250    51.9650    72.6190 HW2           1 RES     
    8902 OW          20.3100    27.1280    71.5010 OW            1 RES     
    8903 HW1         20.6470    28.0650    71.5890 HW1           1 RES     
    8904 HW2         20.4720    26.8020    70.5700 HW2           1 RES     
    8905 OW           6.0010    52.6500    78.6120 OW            1 RES     
    8906 HW1          6.3680    53.4980    78.2320 HW1           1 RES     
    8907 HW2          5.1470    52.4170    78.1470 HW2           1 RES     
    8908 OW          26.9110    35.7180    75.3610 OW            1 RES     
    8909 HW1         27.6780    35.0910    75.4940 HW1           1 RES     
    8910 HW2         27.2580    36.6470    75.2300 HW2           1 RES     
    8911 OW           5.6000    34.6530    67.8960 OW            1 RES     
    8912 HW1          4.7350    34.1530    67.8930 HW1           1 RES     
    8913 HW2          5.4170    35.6360    67.8600 HW2           1 RES     
    8914 OW           7.2160    52.6680    70.0830 OW            1 RES     
    8915 HW1          7.2530    52.0900    70.8970 HW1           1 RES     
    8916 HW2          6.4660    52.3670    69.4940 HW2           1 RES     
    8917 OW          54.7500    22.6690    73.2650 OW            1 RES     
    8918 HW1         54.4010    22.9950    72.3870 HW1           1 RES     
    8919 HW2         53.9900    22.3450    73.8280 HW2           1 RES     
    8920 OW          34.4830    14.4030    77.9250 OW            1 RES     
    8921 HW1         34.5920    13.4120    77.8670 HW1           1 RES     
    8922 HW2         35.3810    14.8330    78.0200 HW2           1 RES     
    8923 OW          36.8580    48.5270    69.4800 OW            1 RES     
    8924 HW1         37.7360    49.0010    69.4390 HW1           1 RES     
    8925 HW2         37.0110    47.5390    69.4880 HW2           1 RES     
    8926 OW          30.4210    48.7240    67.8410 OW            1 RES     
    8927 HW1         30.9350    47.8670    67.8290 HW1           1 RES     
    8928 HW2         29.4410    48.5260    67.8370 HW2           1 RES     
    8929 OW          42.8510    18.5900    74.9590 OW            1 RES     
    8930 HW1         43.3540    17.8560    75.4130 HW1           1 RES     
    8931 HW2         43.3680    18.9060    74.1630 HW2           1 RES     
    8932 OW          52.3970    39.8360    78.8110 OW            1 RES     
    8933 HW1         51.5040    40.2780    78.7380 HW1           1 RES     
    8934 HW2         52.2870    38.8450    78.7320 HW2           1 RES     
    8935 OW          21.6620    13.6460    75.0120 OW            1 RES     
    8936 HW1         21.1220    14.1890    74.3690 HW1           1 RES     
    8937 HW2         22.2110    14.2550    75.5840 HW2           1 RES     
    8938 OW          33.6570     7.3650    77.7340 OW            1 RES     
    8939 HW1         33.4030     6.5400    78.2370 HW1           1 RES     
    8940 HW2         34.6530     7.4100    77.6470 HW2           1 RES     
    8941 OW          29.3420    33.3530    77.0450 OW            1 RES     
    8942 HW1         29.9920    33.9840    76.6230 HW1           1 RES     
    8943 HW2         29.3330    32.4930    76.5350 HW2           1 RES     
    8944 OW          40.4500    10.7960    78.8120 OW            1 RES     
    8945 HW1         39.6950    11.4510    78.7740 HW1           1 RES     
    8946 HW2         40.0850     9.8650    78.8080 HW2           1 RES     
    8947 OW          21.4560    16.9860    71.2740 OW            1 RES     
    8948 HW1         21.9230    16.1520    71.5680 HW1           1 RES     
    8949 HW2         21.4410    17.6430    72.0270 HW2           1 RES     
    8950 OW          33.0640    49.2640    73.0630 OW            1 RES     
    8951 HW1         33.4470    49.5760    72.1940 HW1           1 RES     
    8952 HW2         33.8060    48.9900    73.6760 HW2           1 RES     
    8953 OW          50.7320    43.2980    72.6140 OW            1 RES     
    8954 HW1         51.5090    43.6850    72.1180 HW1           1 RES     
    8955 HW2         50.0760    44.0230    72.8240 HW2           1 RES     
    8956 OW          36.0620    24.5460    73.8470 OW            1 RES     
    8957 HW1         36.3350    24.4630    72.8890 HW1           1 RES     
    8958 HW2         35.2100    25.0660    73.9080 HW2           1 RES     
    8959 OW           8.1860     2.9360    71.2760 OW            1 RES     
    8960 HW1          9.1810     2.8460    71.2540 HW1           1 RES     
    8961 HW2          7.9200     3.8020    70.8520 HW2           1 RES     
    8962 OW          34.9470     4.6660    78.8120 OW            1 RES     
    8963 HW1         34.2090     4.4940    78.1590 HW1           1 RES     
    8964 HW2         35.3370     5.5720    78.6440 HW2           1 RES     
    8965 OW          25.9410    15.7620    71.7040 OW            1 RES     
    8966 HW1         26.3110    16.6910    71.6890 HW1           1 RES     
    8967 HW2         25.6410    15.5080    70.7840 HW2           1 RES     
    8968 OW           9.1870    26.0960    76.4680 OW            1 RES     
    8969 HW1          8.9900    27.0400    76.7300 HW1           1 RES     
    8970 HW2          8.4800    25.7690    75.8400 HW2           1 RES     
    8971 OW          25.1360    10.5710    73.6970 OW            1 RES     
    8972 HW1         25.7510    10.1850    74.3840 HW1           1 RES     
    8973 HW2         25.6710    11.0460    72.9980 HW2           1 RES     
    8974 OW           7.9440    24.7190    67.4490 OW            1 RES     
    8975 HW1          8.6750    25.3090    67.1070 HW1           1 RES     
    8976 HW2          8.3080    23.8040    67.6230 HW2           1 RES     
    8977 OW           6.6610    50.8460    67.4740 OW            1 RES     
    8978 HW1          6.1070    51.6150    67.1570 HW1           1 RES     
    8979 HW2          7.6300    51.0750    67.3880 HW2           1 RES     
    8980 OW           7.1350     6.4450    71.9930 OW            1 RES     
    8981 HW1          7.7390     7.2190    72.1790 HW1           1 RES     
    8982 HW2          7.6390     5.5900    72.1170 HW2           1 RES     
    8983 OW          49.8480    35.8250    76.9770 OW            1 RES     
    8984 HW1         49.0860    35.1790    76.9830 HW1           1 RES     
    8985 HW2         49.6560    36.5620    76.3280 HW2           1 RES     
    8986 OW          47.6400    44.2180    69.6090 OW            1 RES     
    8987 HW1         48.4330    43.6500    69.3920 HW1           1 RES     
    8988 HW2         47.3450    44.0350    70.5470 HW2           1 RES     
    8989 OW           5.6280    41.4920    76.6820 OW            1 RES     
    8990 HW1          6.6050    41.2820    76.6790 HW1           1 RES     
    8991 HW2          5.1100    40.6660    76.9020 HW2           1 RES     
    8992 OW          35.5280    15.7920    71.3230 OW            1 RES     
    8993 HW1         36.0720    16.2860    72.0000 HW1           1 RES     
    8994 HW2         34.8490    16.4090    70.9250 HW2           1 RES     
    8995 OW          33.9530    38.6910    70.4170 OW            1 RES     
    8996 HW1         33.9150    39.0950    69.5040 HW1           1 RES     
    8997 HW2         34.8930    38.7190    70.7560 HW2           1 RES     
    8998 OW          21.8150    28.2240    68.0180 OW            1 RES     
    8999 HW1         22.1140    27.9250    67.1130 HW1           1 RES     
    9000 HW2         21.1410    27.5770    68.3780 HW2           1 RES     
    9001 OW          42.0730    17.7860    77.6460 OW            1 RES     
    9002 HW1         41.2590    17.7720    78.2260 HW1           1 RES     
    9003 HW2         42.1090    18.6480    77.1410 HW2           1 RES     
    9004 OW           5.3590    27.8680    73.1130 OW            1 RES     
    9005 HW1          4.3800    27.9190    72.9190 HW1           1 RES     
    9006 HW2          5.8750    28.0910    72.2850 HW2           1 RES     
    9007 OW          10.0230    43.6820    75.0750 OW            1 RES     
    9008 HW1          9.2000    43.2640    74.6910 HW1           1 RES     
    9009 HW2         10.6840    42.9680    75.3050 HW2           1 RES     
    9010 OW          39.4050    50.5510    74.7230 OW            1 RES     
    9011 HW1         40.1750    50.6580    75.3500 HW1           1 RES     
    9012 HW2         39.7290    50.6350    73.7800 HW2           1 RES     
    9013 OW          26.8660    15.0650    75.7330 OW            1 RES     
    9014 HW1         26.1320    14.5300    76.1500 HW1           1 RES     
    9015 HW2         26.5690    16.0130    75.6240 HW2           1 RES     
    9016 OW          25.0210    33.5340    71.3080 OW            1 RES     
    9017 HW1         24.1350    33.8850    71.6090 HW1           1 RES     
    9018 HW2         24.8910    32.6640    70.8310 HW2           1 RES     
    9019 OW          35.1460    47.5850    76.3080 OW            1 RES     
    9020 HW1         36.0540    48.0020    76.3480 HW1           1 RES     
    9021 HW2         34.5900    48.0630    75.6270 HW2           1 RES     
    9022 OW          44.2110    19.5200    77.9360 OW            1 RES     
    9023 HW1         45.1730    19.7120    77.7500 HW1           1 RES     
    9024 HW2         44.0930    18.5410    78.1080 HW2           1 RES     
    9025 OW          17.3110    19.7440    68.9740 OW            1 RES     
    9026 HW1         17.0470    18.9250    69.4810 HW1           1 RES     
    9027 HW2         16.9760    20.5560    69.4530 HW2           1 RES     
    9028 OW          35.5870    11.1940    75.1110 OW            1 RES     
    9029 HW1         36.1020    11.0690    75.9580 HW1           1 RES     
    9030 HW2         35.7640    10.4240    74.4960 HW2           1 RES     
    9031 OW          37.0380    32.4560    67.2030 OW            1 RES     
    9032 HW1         36.4470    33.2560    67.1070 HW1           1 RES     
    9033 HW2         37.2740    32.3290    68.1670 HW2           1 RES     
    9034 OW          39.3620    46.7030    78.6500 OW            1 RES     
    9035 HW1         40.3400    46.8940    78.7340 HW1           1 RES     
    9036 HW2         39.1980    45.7290    78.8070 HW2           1 RES     
    9037 OW          33.9060    54.1220    77.2780 OW            1 RES     
    9038 HW1         33.4340    54.6530    77.9810 HW1           1 RES     
    9039 HW2         34.2130    53.2530    77.6660 HW2           1 RES     
    9040 OW          18.4520    11.7270    75.5850 OW            1 RES     
    9041 HW1         18.3170    10.7380    75.6210 HW1           1 RES     
    9042 HW2         17.5950    12.1730    75.3270 HW2           1 RES     
    9043 OW          35.7640    47.6410    72.3550 OW            1 RES     
    9044 HW1         35.3990    48.5620    72.2200 HW1           1 RES     
    9045 HW2         36.1360    47.2990    71.4920 HW2           1 RES     
    9046 OW           7.5520    18.1970    70.7750 OW            1 RES     
    9047 HW1          6.8680    18.8940    70.9860 HW1           1 RES     
    9048 HW2          7.5110    17.9730    69.8010 HW2           1 RES     
    9049 OW           2.5040    40.5770    74.1590 OW            1 RES     
    9050 HW1          3.1140    40.3010    74.9010 HW1           1 RES     
    9051 HW2          2.5000    41.5750    74.0830 HW2           1 RES     
    9052 OW          48.5300     5.6710    72.5410 OW            1 RES     
    9053 HW1         48.8800     5.2720    71.6940 HW1           1 RES     
    9054 HW2         49.0830     5.3570    73.3120 HW2           1 RES     
    9055 OW          31.7420    20.7050    75.6410 OW            1 RES     
    9056 HW1         31.5460    21.5710    76.0980 HW1           1 RES     
    9057 HW2         32.6010    20.7810    75.1340 HW2           1 RES     
    9058 OW          11.3620    16.8860    70.3810 OW            1 RES     
    9059 HW1         10.8450    16.2910    69.7670 HW1           1 RES     
    9060 HW2         12.3350    16.8330    70.1560 HW2           1 RES     
    9061 OW          10.9120    15.6070    76.0360 OW            1 RES     
    9062 HW1         11.9050    15.5520    76.1370 HW1           1 RES     
    9063 HW2         10.5220    14.6860    76.0580 HW2           1 RES     
    9064 OW          35.0380     2.5000    75.3470 OW            1 RES     
    9065 HW1         35.9640     2.8640    75.4430 HW1           1 RES     
    9066 HW2         34.4330     2.9490    76.0050 HW2           1 RES     
    9067 OW          32.3580    39.6960    72.7670 OW            1 RES     
    9068 HW1         31.4050    39.4680    72.9630 HW1           1 RES     
    9069 HW2         32.7850    38.9430    72.2650 HW2           1 RES     
    9070 OW           8.1290    25.7240    78.3610 OW            1 RES     
    9071 HW1          7.2410    25.8360    78.8050 HW1           1 RES     
    9072 HW2          8.8010    26.3180    78.8030 HW2           1 RES     
    9073 OW           9.5960    49.7580    75.5850 OW            1 RES     
    9074 HW1         10.4910    49.4720    75.2430 HW1           1 RES     
    9075 HW2          9.2610    49.0850    76.2450 HW2           1 RES     
    9076 OW           5.9040    29.9050    78.2320 OW            1 RES     
    9077 HW1          6.7000    29.7090    78.8040 HW1           1 RES     
    9078 HW2          5.0960    30.0150    78.8100 HW2           1 RES     
    9079 OW          41.2880    53.7650    67.6570 OW            1 RES     
    9080 HW1         40.9830    52.9850    67.1120 HW1           1 RES     
    9081 HW2         41.2330    54.5990    67.1070 HW2           1 RES     
    9082 OW          22.4960     5.1460    77.6270 OW            1 RES     
    9083 HW1         22.9900     4.3020    77.4210 HW1           1 RES     
    9084 HW2         22.3160     5.1960    78.6100 HW2           1 RES     
    9085 OW          50.6890    48.2860    73.1770 OW            1 RES     
    9086 HW1         49.9050    48.9000    73.0860 HW1           1 RES     
    9087 HW2         51.5080    48.7340    72.8180 HW2           1 RES     
    9088 OW          15.0020    12.8970    74.3110 OW            1 RES     
    9089 HW1         15.5460    12.9610    75.1470 HW1           1 RES     
    9090 HW2         15.3550    12.1560    73.7390 HW2           1 RES     
    9091 OW          50.4130    10.8350    70.6380 OW            1 RES     
    9092 HW1         49.7620    10.2610    71.1330 HW1           1 RES     
    9093 HW2         51.1600    11.0960    71.2490 HW2           1 RES     
    9094 OW          26.8860    49.4700    72.3580 OW            1 RES     
    9095 HW1         25.9180    49.2740    72.2010 HW1           1 RES     
    9096 HW2         27.1140    50.3610    71.9630 HW2           1 RES     
    9097 OW           2.7950     6.5290    70.9590 OW            1 RES     
    9098 HW1          3.3210     5.9090    71.5390 HW1           1 RES     
    9099 HW2          2.5010     7.3200    71.4950 HW2           1 RES     
    9100 OW          46.0780     8.0660    67.8170 OW            1 RES     
    9101 HW1         45.1820     8.2110    67.4000 HW1           1 RES     
    9102 HW2         46.7870     8.1290    67.1140 HW2           1 RES     
    9103 OW           9.4690    35.8180    67.9930 OW            1 RES     
    9104 HW1          9.4950    36.8100    67.8680 HW1           1 RES     
    9105 HW2          8.7900    35.5870    68.6900 HW2           1 RES     
    9106 OW          44.5690    13.1200    69.4390 OW            1 RES     
    9107 HW1         45.5650    13.0660    69.3940 HW1           1 RES     
    9108 HW2         44.2900    14.0770    69.5320 HW2           1 RES     
    9109 OW          49.4140    54.3290    77.6210 OW            1 RES     
    9110 HW1         48.5280    54.5880    77.2380 HW1           1 RES     
    9111 HW2         49.7780    53.5430    77.1200 HW2           1 RES     
    9112 OW           9.1760    46.0000    75.1450 OW            1 RES     
    9113 HW1          9.7620    45.7830    74.3650 HW1           1 RES     
    9114 HW2          9.0180    46.9870    75.1790 HW2           1 RES     
    9115 OW          41.9460    29.5200    75.0660 OW            1 RES     
    9116 HW1         41.4860    29.2170    75.9000 HW1           1 RES     
    9117 HW2         42.2180    30.4770    75.1630 HW2           1 RES     
    9118 OW          31.0890    32.1030    70.2260 OW            1 RES     
    9119 HW1         31.5110    31.1980    70.2360 HW1           1 RES     
    9120 HW2         31.8020    32.8040    70.2490 HW2           1 RES     
    9121 OW          43.0520    32.4120    78.3090 OW            1 RES     
    9122 HW1         42.6880    33.3400    78.2300 HW1           1 RES     
    9123 HW2         44.0280    32.4170    78.0930 HW2           1 RES     
    9124 OW           2.5000    21.3770    76.5150 OW            1 RES     
    9125 HW1          3.0530    20.5470    76.5800 HW1           1 RES     
    9126 HW2          3.0900    22.1560    76.3010 HW2           1 RES     
    9127 OW          23.2300    14.6290    72.5840 OW            1 RES     
    9128 HW1         23.7820    14.8820    71.7900 HW1           1 RES     
    9129 HW2         23.7850    14.0910    73.2190 HW2           1 RES     
    9130 OW          25.6210    25.5380    76.0120 OW            1 RES     
    9131 HW1         25.8160    25.7430    75.0530 HW1           1 RES     
    9132 HW2         26.3140    25.9660    76.5930 HW2           1 RES     
    9133 OW           2.6470    16.8750    70.8120 OW            1 RES     
    9134 HW1          2.5010    17.8630    70.7610 HW1           1 RES     
    9135 HW2          3.4930    16.6380    70.3330 HW2           1 RES     
    9136 OW          43.4270    16.4820    72.6530 OW            1 RES     
    9137 HW1         44.0500    15.7180    72.8200 HW1           1 RES     
    9138 HW2         43.9300    17.3440    72.7200 HW2           1 RES     
    9139 OW          47.1050    10.4060    76.4620 OW            1 RES     
    9140 HW1         47.2230     9.4140    76.4890 HW1           1 RES     
    9141 HW2         46.1310    10.6280    76.4980 HW2           1 RES     
    9142 OW          20.3610    11.4990    71.5300 OW            1 RES     
    9143 HW1         20.1050    11.1030    70.6490 HW1           1 RES     
    9144 HW2         19.9720    10.9480    72.2690 HW2           1 RES     
    9145 OW          39.7380    10.7690    72.9950 OW            1 RES     
    9146 HW1         40.1910     9.8820    72.9030 HW1           1 RES     
    9147 HW2         39.4270    11.0790    72.0970 HW2           1 RES     
    9148 OW           6.0820     9.1690    70.0690 OW            1 RES     
    9149 HW1          5.1230     9.4040    69.9160 HW1           1 RES     
    9150 HW2          6.3030     9.2830    71.0370 HW2           1 RES     
    9151 OW          44.7790     4.6000    72.6280 OW            1 RES     
    9152 HW1         44.4930     5.5550    72.5580 HW1           1 RES     
    9153 HW2         44.0040     4.0400    72.9220 HW2           1 RES     
    9154 OW          16.0290    22.4770    72.5000 OW            1 RES     
    9155 HW1         16.6440    22.9470    73.1320 HW1           1 RES     
    9156 HW2         16.5250    21.7450    72.0330 HW2           1 RES     
    9157 OW          25.9950    27.3480    78.2800 OW            1 RES     
    9158 HW1         25.1920    27.0780    78.8100 HW1           1 RES     
    9159 HW2         26.5330    28.0090    78.8030 HW2           1 RES     
    9160 OW          13.0980    49.4410    78.2010 OW            1 RES     
    9161 HW1         13.8780    49.3090    78.8120 HW1           1 RES     
    9162 HW2         12.2530    49.4570    78.7370 HW2           1 RES     
    9163 OW          13.2620    14.1520    67.1070 OW            1 RES     
    9164 HW1         14.1530    14.3120    67.5310 HW1           1 RES     
    9165 HW2         12.7580    13.4700    67.6360 HW2           1 RES     
    9166 OW          39.3940    45.1340    76.2120 OW            1 RES     
    9167 HW1         38.6020    44.9810    75.6220 HW1           1 RES     
    9168 HW2         39.9750    44.3200    76.2080 HW2           1 RES     
    9169 OW          11.2170     5.9380    71.8890 OW            1 RES     
    9170 HW1         10.9810     5.4250    72.7140 HW1           1 RES     
    9171 HW2         12.2060     5.9040    71.7460 HW2           1 RES     
    9172 OW          34.1410    46.3700    71.5220 OW            1 RES     
    9173 HW1         33.7030    47.2520    71.6900 HW1           1 RES     
    9174 HW2         33.8450    46.0130    70.6360 HW2           1 RES     
    9175 OW          52.3040    46.9740    74.7470 OW            1 RES     
    9176 HW1         52.4290    47.9620    74.6620 HW1           1 RES     
    9177 HW2         52.0690    46.5890    73.8550 HW2           1 RES     
    9178 OW          17.7670    16.8560    71.8650 OW            1 RES     
    9179 HW1         18.0060    15.8860    71.8580 HW1           1 RES     
    9180 HW2         16.8310    16.9670    72.1970 HW2           1 RES     
    9181 OW          23.5190    14.1900    69.3470 OW            1 RES     
    9182 HW1         23.2550    15.1000    69.6650 HW1           1 RES     
    9183 HW2         24.5160    14.1240    69.3120 HW2           1 RES     
    9184 OW           5.4360    25.1500    70.4180 OW            1 RES     
    9185 HW1          4.8870    24.3900    70.0710 HW1           1 RES     
    9186 HW2          5.2640    25.9660    69.8650 HW2           1 RES     
    9187 OW          26.7720    10.8910    76.2140 OW            1 RES     
    9188 HW1         26.4680    11.7940    75.9130 HW1           1 RES     
    9189 HW2         27.7380    10.9310    76.4690 HW2           1 RES     
    9190 OW          33.8920     7.1360    70.1160 OW            1 RES     
    9191 HW1         33.8360     6.2180    69.7260 HW1           1 RES     
    9192 HW2         34.5070     7.1260    70.9050 HW2           1 RES     
    9193 OW          22.0580    11.1850    76.5290 OW            1 RES     
    9194 HW1         22.3990    11.6940    75.7400 HW1           1 RES     
    9195 HW2         22.5470    10.3160    76.6030 HW2           1 RES     
    9196 OW          39.6830    38.7900    69.5820 OW            1 RES     
    9197 HW1         40.3290    38.7470    68.8210 HW1           1 RES     
    9198 HW2         39.2840    39.7050    69.6300 HW2           1 RES     
    9199 OW          18.6300    27.3060    76.7880 OW            1 RES     
    9200 HW1         19.3380    27.5950    77.4320 HW1           1 RES     
    9201 HW2         18.9440    26.5000    76.2860 HW2           1 RES     
    9202 OW          25.1940    49.2930    67.1080 OW            1 RES     
    9203 HW1         24.4820    48.6930    67.4710 HW1           1 RES     
    9204 HW2         25.3390    50.0570    67.7370 HW2           1 RES     
    9205 OW          29.6080    54.5380    71.7860 OW            1 RES     
    9206 HW1         28.6110    54.5270    71.7270 HW1           1 RES     
    9207 HW2         29.9480    53.6020    71.8840 HW2           1 RES     
    9208 OW          37.0300     9.1280    71.5210 OW            1 RES     
    9209 HW1         37.2890     9.3080    70.5720 HW1           1 RES     
    9210 HW2         37.4070     8.2470    71.8080 HW2           1 RES     
    9211 OW          45.2610    19.0350    75.6580 OW            1 RES     
    9212 HW1         44.7770    19.9000    75.5310 HW1           1 RES     
    9213 HW2         45.9570    18.9340    74.9470 HW2           1 RES     
    9214 OW          18.4920    42.4140    78.8010 OW            1 RES     
    9215 HW1         17.6570    42.9640    78.8030 HW1           1 RES     
    9216 HW2         19.2890    43.0180    78.8090 HW2           1 RES     
    9217 OW          51.4930     7.9600    69.9370 OW            1 RES     
    9218 HW1         50.7110     8.4480    70.3230 HW1           1 RES     
    9219 HW2         51.3330     6.9750    69.9960 HW2           1 RES     
    9220 OW           3.6130    32.5430    77.9670 OW            1 RES     
    9221 HW1          3.2710    33.4350    77.6720 HW1           1 RES     
    9222 HW2          2.8700    32.0240    78.3900 HW2           1 RES     
    9223 OW          49.8330    45.5030    75.4630 OW            1 RES     
    9224 HW1         49.6300    44.5310    75.5760 HW1           1 RES     
    9225 HW2         50.1950    45.6640    74.5440 HW2           1 RES     
    9226 OW          22.9390    50.7720    67.3720 OW            1 RES     
    9227 HW1         22.6420    49.8760    67.7020 HW1           1 RES     
    9228 HW2         23.2430    51.3280    68.1460 HW2           1 RES     
    9229 OW          19.9470    51.5030    75.8120 OW            1 RES     
    9230 HW1         19.8270    52.4740    76.0170 HW1           1 RES     
    9231 HW2         20.1070    51.0000    76.6610 HW2           1 RES     
    9232 OW          25.9800    41.5060    72.5080 OW            1 RES     
    9233 HW1         26.4000    42.0610    71.7910 HW1           1 RES     
    9234 HW2         25.0960    41.1620    72.1890 HW2           1 RES     
    9235 OW          20.1310    47.3540    67.3320 OW            1 RES     
    9236 HW1         21.0440    47.7580    67.3070 HW1           1 RES     
    9237 HW2         19.4460    48.0810    67.3830 HW2           1 RES     
    9238 OW          36.8630    40.8600    68.3950 OW            1 RES     
    9239 HW1         37.7400    41.3090    68.5610 HW1           1 RES     
    9240 HW2         36.1750    41.5470    68.1590 HW2           1 RES     
    9241 OW           7.4280    15.7870    75.6160 OW            1 RES     
    9242 HW1          7.3500    15.4950    76.5690 HW1           1 RES     
    9243 HW2          7.4080    16.7860    75.5710 HW2           1 RES     
    9244 OW          31.7360    27.8600    74.5910 OW            1 RES     
    9245 HW1         31.6800    28.8580    74.5670 HW1           1 RES     
    9246 HW2         32.6800    27.5840    74.7750 HW2           1 RES     
    9247 OW          23.6870    42.6130    71.3240 OW            1 RES     
    9248 HW1         23.2520    43.4870    71.5350 HW1           1 RES     
    9249 HW2         23.8120    42.5330    70.3340 HW2           1 RES     
    9250 OW          36.4810    40.6370    78.1390 OW            1 RES     
    9251 HW1         36.0070    39.7710    78.2960 HW1           1 RES     
    9252 HW2         36.9290    40.6140    77.2450 HW2           1 RES     
    9253 OW          29.0520    27.0820    76.4640 OW            1 RES     
    9254 HW1         29.0840    27.5980    77.3200 HW1           1 RES     
    9255 HW2         29.8560    26.4910    76.4000 HW2           1 RES     
    9256 OW          26.0060     4.2180    76.0250 OW            1 RES     
    9257 HW1         26.9680     4.4260    75.8530 HW1           1 RES     
    9258 HW2         25.5380     5.0410    76.3460 HW2           1 RES     
    9259 OW          12.6350    51.5510    76.4630 OW            1 RES     
    9260 HW1         12.0080    50.7730    76.4340 HW1           1 RES     
    9261 HW2         12.1120    52.3960    76.5820 HW2           1 RES     
    9262 OW           8.5040     6.1710    76.4340 OW            1 RES     
    9263 HW1          8.7570     7.1120    76.6560 HW1           1 RES     
    9264 HW2          9.3090     5.6800    76.0980 HW2           1 RES     
    9265 OW          10.1410     7.3360    70.5750 OW            1 RES     
    9266 HW1          9.4190     6.6930    70.8300 HW1           1 RES     
    9267 HW2         10.6900     6.9450    69.8360 HW2           1 RES     
    9268 OW           6.1410    24.8940    72.5860 OW            1 RES     
    9269 HW1          5.9590    25.8640    72.4320 HW1           1 RES     
    9270 HW2          7.1240    24.7510    72.6980 HW2           1 RES     
    9271 OW           3.2370    49.7120    70.7490 OW            1 RES     
    9272 HW1          2.5000    49.4850    71.3840 HW1           1 RES     
    9273 HW2          3.9440    49.0060    70.7910 HW2           1 RES     
    9274 OW          17.7860    38.6960    73.9200 OW            1 RES     
    9275 HW1         18.6090    38.2040    74.2030 HW1           1 RES     
    9276 HW2         17.1570    38.0640    73.4680 HW2           1 RES     
    9277 OW          49.5500    24.8520    72.6060 OW            1 RES     
    9278 HW1         48.9630    24.2020    73.0860 HW1           1 RES     
    9279 HW2         49.7010    25.6560    73.1820 HW2           1 RES     
    9280 OW          49.6310    39.7740    71.2870 OW            1 RES     
    9281 HW1         48.8920    39.9950    70.6510 HW1           1 RES     
    9282 HW2         50.4780    40.2080    70.9780 HW2           1 RES     
    9283 OW          41.5290     5.6470    76.8280 OW            1 RES     
    9284 HW1         42.4690     5.7130    77.1610 HW1           1 RES     
    9285 HW2         41.5040     5.0750    76.0080 HW2           1 RES     
    9286 OW          16.7830    27.4970    75.5670 OW            1 RES     
    9287 HW1         17.5210    27.4520    74.8940 HW1           1 RES     
    9288 HW2         15.9030    27.3770    75.1070 HW2           1 RES     
    9289 OW          54.7850    14.8090    78.5840 OW            1 RES     
    9290 HW1         54.5240    15.5880    78.0160 HW1           1 RES     
    9291 HW2         54.0230    14.1640    78.6370 HW2           1 RES     
    9292 OW           2.9550    39.0200    69.8400 OW            1 RES     
    9293 HW1          3.8410    38.7160    69.4910 HW1           1 RES     
    9294 HW2          2.5010    39.5850    69.1510 HW2           1 RES     
    9295 OW           3.7970    38.0400    73.7440 OW            1 RES     
    9296 HW1          3.5430    38.8670    73.2450 HW1           1 RES     
    9297 HW2          3.7810    37.2560    73.1230 HW2           1 RES     
    9298 OW          33.7980    17.5750    78.8120 OW            1 RES     
    9299 HW1         32.8050    17.6880    78.7750 HW1           1 RES     
    9300 HW2         34.0250    16.6020    78.7590 HW2           1 RES     
    9301 OW          14.6870    44.3850    77.0370 OW            1 RES     
    9302 HW1         14.5380    43.4800    77.4330 HW1           1 RES     
    9303 HW2         15.3130    44.9050    77.6190 HW2           1 RES     
    9304 OW          35.9200    33.1200    74.7290 OW            1 RES     
    9305 HW1         35.1540    33.3740    75.3190 HW1           1 RES     
    9306 HW2         36.3520    32.2900    75.0820 HW2           1 RES     
    9307 OW          16.4040    54.7860    77.2770 OW            1 RES     
    9308 HW1         15.5480    54.5390    76.8230 HW1           1 RES     
    9309 HW2         16.6570    54.0670    77.9250 HW2           1 RES     
    9310 OW          15.2940    37.2260    71.8390 OW            1 RES     
    9311 HW1         15.2810    38.1020    72.3200 HW1           1 RES     
    9312 HW2         14.7320    37.2900    71.0140 HW2           1 RES     
    9313 OW          22.1010    45.4120    78.8120 OW            1 RES     
    9314 HW1         21.5330    44.6030    78.6650 HW1           1 RES     
    9315 HW2         22.8900    45.3830    78.1980 HW2           1 RES     
    9316 OW           5.4160    41.9360    74.5380 OW            1 RES     
    9317 HW1          4.4880    42.0620    74.8890 HW1           1 RES     
    9318 HW2          5.5720    42.5640    73.7750 HW2           1 RES     
    9319 OW          54.3660    43.6910    70.8500 OW            1 RES     
    9320 HW1         54.7850    43.1850    71.6030 HW1           1 RES     
    9321 HW2         53.5750    43.1830    70.5060 HW2           1 RES     
    9322 OW          44.2340    52.8720    67.2700 OW            1 RES     
    9323 HW1         43.2490    52.9260    67.1070 HW1           1 RES     
    9324 HW2         44.6470    53.7700    67.1190 HW2           1 RES     
    9325 OW          41.0650    15.7590    77.3610 OW            1 RES     
    9326 HW1         40.4510    15.1490    76.8620 HW1           1 RES     
    9327 HW2         40.9750    15.5940    78.3430 HW2           1 RES     
    9328 OW          53.9730    33.2880    76.3960 OW            1 RES     
    9329 HW1         54.1820    32.3370    76.1720 HW1           1 RES     
    9330 HW2         53.1580    33.3230    76.9750 HW2           1 RES     
    9331 OW          17.7940    18.9190    78.1410 OW            1 RES     
    9332 HW1         18.5150    18.3530    77.7430 HW1           1 RES     
    9333 HW2         18.2070    19.6830    78.6390 HW2           1 RES     
    9334 OW           7.6470    48.1590    77.6360 OW            1 RES     
    9335 HW1          7.0970    48.4940    78.4000 HW1           1 RES     
    9336 HW2          8.5550    47.8990    77.9670 HW2           1 RES     
    9337 OW          24.8450     5.1000    67.8620 OW            1 RES     
    9338 HW1         24.8790     4.6090    68.7310 HW1           1 RES     
    9339 HW2         24.7560     4.4450    67.1110 HW2           1 RES     
    9340 OW          45.1480    36.0030    72.9160 OW            1 RES     
    9341 HW1         45.5720    35.4740    72.1820 HW1           1 RES     
    9342 HW2         44.1610    36.0520    72.7660 HW2           1 RES     
    9343 OW          35.6890    51.9740    70.8780 OW            1 RES     
    9344 HW1         36.1160    52.7280    71.3770 HW1           1 RES     
    9345 HW2         36.3310    51.2100    70.8130 HW2           1 RES     
    9346 OW          45.2310    37.2560    77.2680 OW            1 RES     
    9347 HW1         44.7360    36.4580    77.6120 HW1           1 RES     
    9348 HW2         45.4760    37.8520    78.0320 HW2           1 RES     
    9349 OW           5.2150    28.6590    75.9280 OW            1 RES     
    9350 HW1          5.9560    29.3040    76.1160 HW1           1 RES     
    9351 HW2          4.3350    29.1250    76.0240 HW2           1 RES     
    9352 OW           6.9420    44.2930    75.8920 OW            1 RES     
    9353 HW1          5.9930    44.2710    75.5790 HW1           1 RES     
    9354 HW2          7.2620    45.2410    75.9180 HW2           1 RES     
    9355 OW          40.8090    54.7860    77.0620 OW            1 RES     
    9356 HW1         40.0020    54.2470    76.8220 HW1           1 RES     
    9357 HW2         41.5620    54.1710    77.2980 HW2           1 RES     
    9358 OW          32.9080    16.9580    75.4100 OW            1 RES     
    9359 HW1         33.4270    16.1080    75.3270 HW1           1 RES     
    9360 HW2         33.5190    17.7370    75.2660 HW2           1 RES     
    9361 OW          28.7380    54.2060    69.2790 OW            1 RES     
    9362 HW1         28.9590    54.7860    68.4960 HW1           1 RES     
    9363 HW2         29.5830    53.8640    69.6910 HW2           1 RES     
    9364 OW          46.8020    11.8830    74.7680 OW            1 RES     
    9365 HW1         47.2790    11.0960    74.3800 HW1           1 RES     
    9366 HW2         47.3460    12.7090    74.6220 HW2           1 RES     
    9367 OW          27.2780    41.4700    75.5790 OW            1 RES     
    9368 HW1         27.9940    41.0850    74.9980 HW1           1 RES     
    9369 HW2         27.3280    41.0580    76.4890 HW2           1 RES     
    9370 OW          34.1010    24.3560    70.6770 OW            1 RES     
    9371 HW1         34.1140    23.4950    70.1700 HW1           1 RES     
    9372 HW2         33.7130    25.0760    70.1010 HW2           1 RES     
    9373 OW           7.1530    18.8830    78.2850 OW            1 RES     
    9374 HW1          8.0630    19.1820    78.0000 HW1           1 RES     
    9375 HW2          6.6800    18.4650    77.5090 HW2           1 RES     
    9376 OW          27.0470    21.5700    74.1690 OW            1 RES     
    9377 HW1         27.8440    22.1620    74.0620 HW1           1 RES     
    9378 HW2         26.2890    22.0970    74.5550 HW2           1 RES     
    9379 OW          22.7050    20.4170    72.6120 OW            1 RES     
    9380 HW1         23.4620    19.8840    72.9870 HW1           1 RES     
    9381 HW2         22.3570    19.9690    71.7880 HW2           1 RES     
    9382 OW          33.9340     3.7020    70.8000 OW            1 RES     
    9383 HW1         33.0940     4.2230    70.9540 HW1           1 RES     
    9384 HW2         33.7020     2.7600    70.5580 HW2           1 RES     
    9385 OW          15.9150    40.7890    75.2670 OW            1 RES     
    9386 HW1         16.2320    40.6130    74.3360 HW1           1 RES     
    9387 HW2         16.6260    40.5210    75.9180 HW2           1 RES     
    9388 OW          43.3740    31.4520    69.9160 OW            1 RES     
    9389 HW1         43.2320    30.6280    69.3690 HW1           1 RES     
    9390 HW2         43.2150    31.2440    70.8820 HW2           1 RES     
    9391 OW          27.9550     2.5370    77.3460 OW            1 RES     
    9392 HW1         27.0490     2.5020    76.9240 HW1           1 RES     
    9393 HW2         28.0580     3.3990    77.8430 HW2           1 RES     
    9394 OW          45.4660    43.6230    68.4670 OW            1 RES     
    9395 HW1         45.5370    44.4610    69.0070 HW1           1 RES     
    9396 HW2         45.0700    42.8960    69.0290 HW2           1 RES     
    9397 OW          36.5890    45.0840    73.0860 OW            1 RES     
    9398 HW1         36.7710    44.1120    72.9370 HW1           1 RES     
    9399 HW2         37.4520    45.5880    73.0920 HW2           1 RES     
    9400 OW          40.0360    15.3080    68.7680 OW            1 RES     
    9401 HW1         39.4630    15.2780    67.9500 HW1           1 RES     
    9402 HW2         39.8090    14.5360    69.3630 HW2           1 RES     
    9403 OW          37.3190     6.8810    76.8600 OW            1 RES     
    9404 HW1         37.2990     6.8140    77.8570 HW1           1 RES     
    9405 HW2         36.6870     7.5960    76.5610 HW2           1 RES     
    9406 OW          17.4830    38.0770    67.8600 OW            1 RES     
    9407 HW1         18.3500    38.0570    68.3560 HW1           1 RES     
    9408 HW2         17.2100    37.1430    67.6250 HW2           1 RES     
    9409 OW           2.9070    29.5210    71.6640 OW            1 RES     
    9410 HW1          2.5000    30.2470    71.1100 HW1           1 RES     
    9411 HW2          3.4070    28.8890    71.0710 HW2           1 RES     
    9412 OW           5.7890    42.2050    69.4230 OW            1 RES     
    9413 HW1          5.5200    43.1350    69.6720 HW1           1 RES     
    9414 HW2          6.7180    42.0270    69.7480 HW2           1 RES     
    9415 OW          48.0460    16.3470    73.1760 OW            1 RES     
    9416 HW1         48.7640    15.6670    73.0290 HW1           1 RES     
    9417 HW2         48.3920    17.0750    73.7680 HW2           1 RES     
    9418 OW          43.1000     6.1110    74.8850 OW            1 RES     
    9419 HW1         42.7580     7.0460    74.7950 HW1           1 RES     
    9420 HW2         42.8680     5.5900    74.0630 HW2           1 RES     
    9421 OW          54.3610    35.4360    72.1400 OW            1 RES     
    9422 HW1         54.7760    35.2030    73.0190 HW1           1 RES     
    9423 HW2         53.3920    35.6440    72.2730 HW2           1 RES     
    9424 OW           2.6440    14.2300    71.4640 OW            1 RES     
    9425 HW1          3.0900    13.4890    70.9640 HW1           1 RES     
    9426 HW2          2.5010    13.9530    72.4150 HW2           1 RES     
    9427 OW          47.6800    13.0590    71.8050 OW            1 RES     
    9428 HW1         46.6920    12.9810    71.9340 HW1           1 RES     
    9429 HW2         48.0490    12.1790    71.5050 HW2           1 RES     
    9430 OW          11.9640    25.7640    74.0590 OW            1 RES     
    9431 HW1         12.0050    26.4060    73.2940 HW1           1 RES     
    9432 HW2         12.6950    25.0870    73.9660 HW2           1 RES     
    9433 OW          46.8140    25.7760    71.5650 OW            1 RES     
    9434 HW1         46.6200    26.7130    71.2760 HW1           1 RES     
    9435 HW2         47.4240    25.7910    72.3580 HW2           1 RES     
    9436 OW          33.2420    51.2100    70.5590 OW            1 RES     
    9437 HW1         33.8730    51.3400    69.7950 HW1           1 RES     
    9438 HW2         32.3110    51.0980    70.2090 HW2           1 RES     
    9439 OW          21.0300    44.9910    72.5470 OW            1 RES     
    9440 HW1         20.8770    45.2530    71.5950 HW1           1 RES     
    9441 HW2         21.4050    44.0640    72.5820 HW2           1 RES     
    9442 OW          50.6590    19.0120    73.3680 OW            1 RES     
    9443 HW1         51.5810    18.7090    73.6070 HW1           1 RES     
    9444 HW2         50.6730    19.9910    73.1610 HW2           1 RES     
    9445 OW          34.6700    38.4280    76.9430 OW            1 RES     
    9446 HW1         34.2130    39.3000    77.1130 HW1           1 RES     
    9447 HW2         33.9880    37.7300    76.7240 HW2           1 RES     
    9448 OW          40.9850     7.9550    77.2300 OW            1 RES     
    9449 HW1         40.0270     8.0620    77.4920 HW1           1 RES     
    9450 HW2         41.5420     8.6250    77.7220 HW2           1 RES     
    9451 OW          53.9830    30.1580    75.9360 OW            1 RES     
    9452 HW1         54.3740    30.3820    75.0440 HW1           1 RES     
    9453 HW2         52.9930    30.0490    75.8480 HW2           1 RES     
    9454 OW          37.4820     3.4880    73.3290 OW            1 RES     
    9455 HW1         38.1280     4.2380    73.4640 HW1           1 RES     
    9456 HW2         37.9840     2.6500    73.1130 HW2           1 RES     
    9457 OW          29.7910     5.0660    75.8880 OW            1 RES     
    9458 HW1         29.1630     4.3530    76.1980 HW1           1 RES     
    9459 HW2         30.7130     4.8650    76.2180 HW2           1 RES     
    9460 OW          51.3370    24.2570    69.2530 OW            1 RES     
    9461 HW1         52.0940    23.6410    69.0380 HW1           1 RES     
    9462 HW2         51.4950    25.1440    68.8180 HW2           1 RES     
    9463 OW          42.8870     9.8040    72.8560 OW            1 RES     
    9464 HW1         42.2360     9.1350    73.2160 HW1           1 RES     
    9465 HW2         42.4280    10.3910    72.1900 HW2           1 RES     
    9466 OW          36.6160    45.2460    77.5710 OW            1 RES     
    9467 HW1         36.5910    46.2450    77.5590 HW1           1 RES     
    9468 HW2         37.5660    44.9360    77.5620 HW2           1 RES     
    9469 OW          39.7990    19.7050    70.3390 OW            1 RES     
    9470 HW1         39.9670    19.2880    69.4460 HW1           1 RES     
    9471 HW2         39.7100    20.6950    70.2340 HW2           1 RES     
    9472 OW          51.4080    17.0690    69.0360 OW            1 RES     
    9473 HW1         52.0210    16.8290    69.7890 HW1           1 RES     
    9474 HW2         51.7690    16.6980    68.1800 HW2           1 RES     
    9475 OW          17.5970     4.2360    77.3670 OW            1 RES     
    9476 HW1         18.4140     4.7490    77.6300 HW1           1 RES     
    9477 HW2         16.9270     4.2740    78.1080 HW2           1 RES     
    9478 OW          53.4070    10.8210    67.3510 OW            1 RES     
    9479 HW1         54.4050    10.8620    67.3730 HW1           1 RES     
    9480 HW2         53.1100     9.8680    67.4080 HW2           1 RES     
    9481 OW          52.8450    38.0790    75.3850 OW            1 RES     
    9482 HW1         51.8760    37.8970    75.2210 HW1           1 RES     
    9483 HW2         53.2520    37.3050    75.8700 HW2           1 RES     
    9484 OW          23.3160    15.8510    77.8420 OW            1 RES     
    9485 HW1         23.5130    14.9190    77.5380 HW1           1 RES     
    9486 HW2         24.1750    16.3320    78.0210 HW2           1 RES     
    9487 OW          42.1040    21.6870    72.9300 OW            1 RES     
    9488 HW1         42.3160    22.6620    72.8700 HW1           1 RES     
    9489 HW2         42.3620    21.3440    73.8330 HW2           1 RES     
    9490 OW          26.7570    24.9270    69.5340 OW            1 RES     
    9491 HW1         26.3000    24.1360    69.9390 HW1           1 RES     
    9492 HW2         26.4040    25.7660    69.9490 HW2           1 RES     
    9493 OW          37.3140    45.1060    68.5430 OW            1 RES     
    9494 HW1         36.4530    45.4760    68.8900 HW1           1 RES     
    9495 HW2         38.0560    45.7470    68.7390 HW2           1 RES     
    9496 OW          24.8720    12.2980    70.9160 OW            1 RES     
    9497 HW1         24.0350    12.8320    71.0270 HW1           1 RES     
    9498 HW2         24.6710    11.3280    71.0600 HW2           1 RES     
    9499 OW           4.3900    47.4280    74.3290 OW            1 RES     
    9500 HW1          3.4540    47.0970    74.2140 HW1           1 RES     
    9501 HW2          4.3880    48.4280    74.3690 HW2           1 RES     
    9502 OW          37.5090    52.0100    72.9220 OW            1 RES     
    9503 HW1         37.5290    51.0270    72.7410 HW1           1 RES     
    9504 HW2         38.4100    52.3090    73.2370 HW2           1 RES     
    9505 OW           5.1160    20.2530    75.2010 OW            1 RES     
    9506 HW1          4.6700    21.1460    75.1500 HW1           1 RES     
    9507 HW2          4.4230    19.5320    75.1870 HW2           1 RES     
    9508 OW          26.5490    18.2360    73.5670 OW            1 RES     
    9509 HW1         25.9590    17.4550    73.7700 HW1           1 RES     
    9510 HW2         27.4040    17.9120    73.1610 HW2           1 RES     
    9511 OW          47.0950    10.0760    72.0880 OW            1 RES     
    9512 HW1         46.2700     9.5120    72.1120 HW1           1 RES     
    9513 HW2         47.9000     9.4870    72.0130 HW2           1 RES     
    9514 OW          16.6050    30.5890    71.1760 OW            1 RES     
    9515 HW1         17.3010    29.8990    71.3730 HW1           1 RES     
    9516 HW2         17.0440    31.4140    70.8190 HW2           1 RES     
    9517 OW          39.3850    32.5460    73.6080 OW            1 RES     
    9518 HW1         39.4630    33.3830    73.0670 HW1           1 RES     
    9519 HW2         39.4880    32.7650    74.5780 HW2           1 RES     
    9520 OW          36.4540    18.9080    78.7600 OW            1 RES     
    9521 HW1         36.0940    17.9760    78.7420 HW1           1 RES     
    9522 HW2         35.6950    19.5580    78.7920 HW2           1 RES     
    9523 OW          28.7170    51.4880    69.9280 OW            1 RES     
    9524 HW1         28.1400    51.8190    70.6750 HW1           1 RES     
    9525 HW2         28.5330    52.0220    69.1030 HW2           1 RES     
    9526 OW           6.6100    53.8170    72.4080 OW            1 RES     
    9527 HW1          6.3720    54.2700    73.2670 HW1           1 RES     
    9528 HW2          7.2580    54.3850    71.9000 HW2           1 RES     
    9529 OW          12.8340    39.1500    74.7700 OW            1 RES     
    9530 HW1         11.9490    39.2150    74.3090 HW1           1 RES     
    9531 HW2         12.8050    38.4130    75.4450 HW2           1 RES     
    9532 OW          17.7620    13.7290    68.6220 OW            1 RES     
    9533 HW1         17.5760    12.7520    68.5250 HW1           1 RES     
    9534 HW2         17.0030    14.2540    68.2390 HW2           1 RES     
    9535 OW          46.4790     4.7380    69.1620 OW            1 RES     
    9536 HW1         47.0590     4.0700    69.6270 HW1           1 RES     
    9537 HW2         46.1310     5.3990    69.8280 HW2           1 RES     
    9538 OW          46.1010    16.3630    74.4900 OW            1 RES     
    9539 HW1         46.6920    16.7490    75.1970 HW1           1 RES     
    9540 HW2         45.2690    16.9130    74.4140 HW2           1 RES     
    9541 OW          51.5030    46.8890    71.5600 OW            1 RES     
    9542 HW1         51.4730    46.9370    70.5620 HW1           1 RES     
    9543 HW2         51.2050    45.9830    71.8600 HW2           1 RES     
    9544 OW          26.5180    40.0840    70.1770 OW            1 RES     
    9545 HW1         26.4680    39.2380    69.6470 HW1           1 RES     
    9546 HW2         26.5400    39.8650    71.1530 HW2           1 RES     
    9547 OW          12.0440    46.9530    74.7920 OW            1 RES     
    9548 HW1         11.9090    45.9630    74.8110 HW1           1 RES     
    9549 HW2         11.1580    47.4120    74.8540 HW2           1 RES     
    9550 OW          46.3980    23.6750    72.0670 OW            1 RES     
    9551 HW1         47.1150    22.9990    72.2330 HW1           1 RES     
    9552 HW2         46.1170    23.6350    71.1080 HW2           1 RES     
    9553 OW           9.5120    43.8380    70.4490 OW            1 RES     
    9554 HW1          9.9720    43.6610    69.5800 HW1           1 RES     
    9555 HW2          9.9710    44.5900    70.9240 HW2           1 RES     
    9556 OW          54.3010    25.5360    68.0220 OW            1 RES     
    9557 HW1         54.3830    25.9300    67.1080 HW1           1 RES     
    9558 HW2         53.5180    25.9450    68.4920 HW2           1 RES     
    9559 OW          33.8390    49.1500    70.0690 OW            1 RES     
    9560 HW1         34.6920    48.6850    69.8310 HW1           1 RES     
    9561 HW2         33.2490    49.1970    69.2630 HW2           1 RES     
    9562 OW          23.4620    31.6770    76.9600 OW            1 RES     
    9563 HW1         23.7490    31.9370    77.8810 HW1           1 RES     
    9564 HW2         23.6770    30.7130    76.8030 HW2           1 RES     
    9565 OW          41.5660    45.9050    69.7390 OW            1 RES     
    9566 HW1         42.1570    45.4290    69.0890 HW1           1 RES     
    9567 HW2         40.6150    45.6370    69.5850 HW2           1 RES     
    9568 OW          10.1480    21.0960    75.9620 OW            1 RES     
    9569 HW1          9.9680    22.0270    75.6460 HW1           1 RES     
    9570 HW2          9.4160    20.8060    76.5800 HW2           1 RES     
    9571 OW          43.2810    45.0080    73.3240 OW            1 RES     
    9572 HW1         44.0990    44.8970    73.8870 HW1           1 RES     
    9573 HW2         42.4970    44.5950    73.7880 HW2           1 RES     
    9574 OW          43.6130    45.9670    71.3720 OW            1 RES     
    9575 HW1         44.5180    45.6020    71.5900 HW1           1 RES     
    9576 HW2         43.6280    46.3730    70.4580 HW2           1 RES     
    9577 OW          54.7760    38.1890    74.2980 OW            1 RES     
    9578 HW1         54.2590    38.9720    73.9560 HW1           1 RES     
    9579 HW2         54.3580    37.3420    73.9680 HW2           1 RES     
    9580 OW          41.8990     3.6920    73.4590 OW            1 RES     
    9581 HW1         41.2170     3.9370    74.1470 HW1           1 RES     
    9582 HW2         41.9630     2.6960    73.3910 HW2           1 RES     
    9583 OW          44.6020    40.2260    70.4590 OW            1 RES     
    9584 HW1         44.7180    40.0100    69.4910 HW1           1 RES     
    9585 HW2         43.9660    39.5740    70.8730 HW2           1 RES     
    9586 OW          38.3850    17.7270    74.6550 OW            1 RES     
    9587 HW1         39.0640    18.4480    74.5220 HW1           1 RES     
    9588 HW2         37.4760    18.1360    74.7370 HW2           1 RES     
    9589 OW          23.4550     9.1500    74.9710 OW            1 RES     
    9590 HW1         22.6340     9.3800    74.4490 HW1           1 RES     
    9591 HW2         24.1180     8.7030    74.3700 HW2           1 RES     
    9592 OW          47.4950    32.4380    70.0990 OW            1 RES     
    9593 HW1         47.4180    32.8200    69.1790 HW1           1 RES     
    9594 HW2         48.4530    32.2260    70.2930 HW2           1 RES     
    9595 OW           3.7800    38.6260    78.2690 OW            1 RES     
    9596 HW1          4.2500    37.7510    78.1520 HW1           1 RES     
    9597 HW2          2.9500    38.4900    78.8100 HW2           1 RES     
    9598 OW           7.7080    30.4830    72.8820 OW            1 RES     
    9599 HW1          7.4380    29.6320    72.4320 HW1           1 RES     
    9600 HW2          8.6360    30.3900    73.2430 HW2           1 RES     
    9601 OW           5.8160    11.4730    74.9910 OW            1 RES     
    9602 HW1          5.8960    10.5380    75.3340 HW1           1 RES     
    9603 HW2          6.5410    12.0370    75.3860 HW2           1 RES     
    9604 OW          42.9540    11.8320    74.9290 OW            1 RES     
    9605 HW1         43.5120    12.5830    74.5780 HW1           1 RES     
    9606 HW2         43.1000    11.7380    75.9130 HW2           1 RES     
    9607 OW          54.7030    25.2370    71.6640 OW            1 RES     
    9608 HW1         53.7610    25.0520    71.9420 HW1           1 RES     
    9609 HW2         54.7640    26.1600    71.2840 HW2           1 RES     
    9610 OW          36.6090    26.9310    78.8070 OW            1 RES     
    9611 HW1         35.6500    26.7900    78.5640 HW1           1 RES     
    9612 HW2         37.1520    26.1540    78.4870 HW2           1 RES     
    9613 OW          48.1910    21.6490    70.3690 OW            1 RES     
    9614 HW1         47.5660    20.8760    70.2700 HW1           1 RES     
    9615 HW2         47.7190    22.4940    70.1190 HW2           1 RES     
    9616 OW          12.9000    32.6840    69.0220 OW            1 RES     
    9617 HW1         13.6520    33.2380    69.3770 HW1           1 RES     
    9618 HW2         12.0480    32.9480    69.4740 HW2           1 RES     
    9619 OW          13.4710    27.8260    74.1740 OW            1 RES     
    9620 HW1         13.1350    28.2990    74.9880 HW1           1 RES     
    9621 HW2         13.8170    26.9230    74.4310 HW2           1 RES     
    9622 OW          37.0640    50.3630    67.6260 OW            1 RES     
    9623 HW1         38.0590    50.3390    67.7160 HW1           1 RES     
    9624 HW2         36.7190    49.4350    67.4810 HW2           1 RES     
    9625 OW          53.2470    48.2120    70.2970 OW            1 RES     
    9626 HW1         53.3500    49.0040    69.6970 HW1           1 RES     
    9627 HW2         53.8080    47.4580    69.9550 HW2           1 RES     
    9628 OW          19.7170    40.1840    75.0440 OW            1 RES     
    9629 HW1         18.7320    40.2070    75.2100 HW1           1 RES     
    9630 HW2         20.0260    41.0850    74.7400 HW2           1 RES     
    9631 OW          49.5390    15.8890    75.2240 OW            1 RES     
    9632 HW1         50.2980    15.6850    74.6060 HW1           1 RES     
    9633 HW2         48.8580    15.1580    75.1690 HW2           1 RES     
    9634 OW          16.1700    45.2700    67.2380 OW            1 RES     
    9635 HW1         16.7950    46.0380    67.1070 HW1           1 RES     
    9636 HW2         16.2910    44.8940    68.1570 HW2           1 RES     
    9637 OW           7.2690    32.5820    77.9380 OW            1 RES     
    9638 HW1          7.5310    31.6250    78.0570 HW1           1 RES     
    9639 HW2          7.3670    33.0650    78.8090 HW2           1 RES     
    9640 OW          12.7860    29.0830    78.7570 OW            1 RES     
    9641 HW1         13.7110    29.4600    78.7290 HW1           1 RES     
    9642 HW2         12.1210    29.8300    78.7720 HW2           1 RES     
    9643 OW          32.9610    43.4890    76.2820 OW            1 RES     
    9644 HW1         33.8920    43.6670    75.9660 HW1           1 RES     
    9645 HW2         32.9110    42.5700    76.6720 HW2           1 RES     
    9646 OW           3.1830    47.3670    69.1570 OW            1 RES     
    9647 HW1          2.7220    46.5430    68.8300 HW1           1 RES     
    9648 HW2          2.5010    48.0440    69.4360 HW2           1 RES     
    9649 OW           3.4430    32.4630    72.6360 OW            1 RES     
    9650 HW1          2.5020    32.3870    72.9630 HW1           1 RES     
    9651 HW2          3.5000    32.1170    71.6990 HW2           1 RES     
    9652 OW          50.7190    52.9820    75.1050 OW            1 RES     
    9653 HW1         50.2960    52.3420    74.4640 HW1           1 RES     
    9654 HW2         51.2290    52.4720    75.7980 HW2           1 RES     
    9655 OW          17.5190    43.0830    68.6260 OW            1 RES     
    9656 HW1         17.8630    43.7970    69.2350 HW1           1 RES     
    9657 HW2         18.2870    42.6290    68.1760 HW2           1 RES     
    9658 OW          10.9380    40.4060    76.9250 OW            1 RES     
    9659 HW1         11.3390    41.1620    76.4090 HW1           1 RES     
    9660 HW2         11.4580    39.5700    76.7510 HW2           1 RES     
    9661 OW          37.2040    31.4420    70.1790 OW            1 RES     
    9662 HW1         37.2430    30.4450    70.2230 HW1           1 RES     
    9663 HW2         38.1320    31.8120    70.1290 HW2           1 RES     
    9664 OW          10.7280    42.3240    78.7360 OW            1 RES     
    9665 HW1         10.2240    41.4610    78.7590 HW1           1 RES     
    9666 HW2         10.6760    42.7170    77.8180 HW2           1 RES     
    9667 OW           3.0790    26.0380    77.5100 OW            1 RES     
    9668 HW1          2.5280    26.5250    78.1870 HW1           1 RES     
    9669 HW2          3.7230    26.6750    77.0840 HW2           1 RES     
    9670 OW          53.0850     8.8760    72.1680 OW            1 RES     
    9671 HW1         52.8740     7.8990    72.1310 HW1           1 RES     
    9672 HW2         52.2340     9.4020    72.1510 HW2           1 RES     
    9673 OW           9.2330    35.4120    78.7400 OW            1 RES     
    9674 HW1          8.2710    35.1510    78.8120 HW1           1 RES     
    9675 HW2          9.3120    36.4080    78.7720 HW2           1 RES     
    9676 OW          53.4470    31.6080    71.4610 OW            1 RES     
    9677 HW1         52.7060    31.3140    70.8590 HW1           1 RES     
    9678 HW2         54.3220    31.5130    70.9850 HW2           1 RES     
    9679 OW          19.9850    24.6740    67.1070 OW            1 RES     
    9680 HW1         20.4770    24.4300    67.9420 HW1           1 RES     
    9681 HW2         19.7680    25.6500    67.1200 HW2           1 RES     
    9682 OW          15.0780    29.3190    74.3410 OW            1 RES     
    9683 HW1         15.9520    29.7360    74.0950 HW1           1 RES     
    9684 HW2         14.4130    30.0360    74.5520 HW2           1 RES     
    9685 OW          47.0580    48.6850    68.9500 OW            1 RES     
    9686 HW1         46.6660    49.6040    68.9240 HW1           1 RES     
    9687 HW2         46.3490    48.0140    68.7290 HW2           1 RES     
    9688 OW          28.1710    23.7810    75.6630 OW            1 RES     
    9689 HW1         27.6380    24.5290    75.2690 HW1           1 RES     
    9690 HW2         27.5530    23.0980    76.0510 HW2           1 RES     
    9691 OW          50.9710    54.3530    71.7010 OW            1 RES     
    9692 HW1         51.0170    54.3450    72.6990 HW1           1 RES     
    9693 HW2         51.7590    53.8630    71.3270 HW2           1 RES     
    9694 OW          10.4290    27.5390    74.3380 OW            1 RES     
    9695 HW1         10.2220    27.8480    73.4110 HW1           1 RES     
    9696 HW2          9.9980    26.6510    74.4980 HW2           1 RES     
    9697 OW          21.1440    22.9820    73.4870 OW            1 RES     
    9698 HW1         21.9480    22.5520    73.0780 HW1           1 RES     
    9699 HW2         20.3650    22.8910    72.8660 HW2           1 RES     
    9700 OW          29.0140    22.8420    77.6790 OW            1 RES     
    9701 HW1         28.3570    22.1810    78.0390 HW1           1 RES     
    9702 HW2         29.6010    22.3950    77.0020 HW2           1 RES     
    9703 OW          29.2930    54.5330    78.5320 OW            1 RES     
    9704 HW1         29.2700    53.7320    77.9370 HW1           1 RES     
    9705 HW2         30.2440    54.7860    78.7150 HW2           1 RES     
    9706 OW          12.2270    44.7710    68.7570 OW            1 RES     
    9707 HW1         13.0300    44.1910    68.8880 HW1           1 RES     
    9708 HW2         11.8630    45.0440    69.6480 HW2           1 RES     
    9709 OW          12.4100    23.5510    71.9490 OW            1 RES     
    9710 HW1         11.6900    23.0400    72.4170 HW1           1 RES     
    9711 HW2         12.0040    24.3150    71.4460 HW2           1 RES     
    9712 OW          31.7110    52.3660    78.4620 OW            1 RES     
    9713 HW1         31.8670    53.3020    78.7760 HW1           1 RES     
    9714 HW2         32.2930    52.1780    77.6700 HW2           1 RES     
    9715 OW          20.3020    16.9960    75.5940 OW            1 RES     
    9716 HW1         20.7520    16.1110    75.7050 HW1           1 RES     
    9717 HW2         19.3120    16.8630    75.5440 HW2           1 RES     
    9718 OW          34.6000    32.7080    72.9480 OW            1 RES     
    9719 HW1         35.2590    32.5080    72.2240 HW1           1 RES     
    9720 HW2         34.5110    31.9120    73.5470 HW2           1 RES     
    9721 OW          52.4240    15.3680    74.1360 OW            1 RES     
    9722 HW1         53.4050    15.5540    74.1000 HW1           1 RES     
    9723 HW2         52.1510    14.8510    73.3240 HW2           1 RES     
    9724 OW          23.1210    41.4620    77.3930 OW            1 RES     
    9725 HW1         23.6970    42.2780    77.3450 HW1           1 RES     
    9726 HW2         23.7000    40.6490    77.4660 HW2           1 RES     
    9727 OW          24.4970    41.8250    75.1470 OW            1 RES     
    9728 HW1         25.0210    41.3510    75.8530 HW1           1 RES     
    9729 HW2         25.1170    42.1530    74.4330 HW2           1 RES     
    9730 OW          35.2950     4.7230    69.0050 OW            1 RES     
    9731 HW1         35.6750     3.8930    69.4130 HW1           1 RES     
    9732 HW2         34.4600     4.4960    68.5040 HW2           1 RES     
    9733 OW          14.2880    40.9470    76.8810 OW            1 RES     
    9734 HW1         13.5740    41.4650    77.3500 HW1           1 RES     
    9735 HW2         13.8830    40.1530    76.4270 HW2           1 RES     
    9736 OW          51.1260    34.8860    78.5060 OW            1 RES     
    9737 HW1         51.6580    34.0450    78.4150 HW1           1 RES     
    9738 HW2         50.2000    34.6640    78.8120 HW2           1 RES     
    9739 OW          37.0510    38.7510    72.2670 OW            1 RES     
    9740 HW1         37.2940    37.9480    71.7240 HW1           1 RES     
    9741 HW2         36.7470    39.4860    71.6600 HW2           1 RES     
    9742 OW          31.8370    52.8860    73.3750 OW            1 RES     
    9743 HW1         31.7880    52.1890    74.0890 HW1           1 RES     
    9744 HW2         31.5340    53.7650    73.7450 HW2           1 RES     
    9745 OW          30.1420    20.1750    77.0560 OW            1 RES     
    9746 HW1         30.7210    19.8610    77.8080 HW1           1 RES     
    9747 HW2         29.9970    19.4240    76.4110 HW2           1 RES     
    9748 OW          23.1050    39.8080    74.8690 OW            1 RES     
    9749 HW1         23.7870    39.9830    74.1610 HW1           1 RES     
    9750 HW2         22.1890    39.8620    74.4710 HW2           1 RES     
    9751 OW          46.5270    39.7850    78.0320 OW            1 RES     
    9752 HW1         46.0470    40.1890    78.8100 HW1           1 RES     
    9753 HW2         47.2640    39.1950    78.3640 HW2           1 RES     
    9754 OW           3.4400     4.9420    68.4360 OW            1 RES     
    9755 HW1          2.5000     4.6170    68.3350 HW1           1 RES     
    9756 HW2          3.5220     5.8560    68.0400 HW2           1 RES     
    9757 OW          34.6350    39.0150    74.5930 OW            1 RES     
    9758 HW1         34.2170    39.6480    73.9430 HW1           1 RES     
    9759 HW2         35.3020    38.4400    74.1170 HW2           1 RES     
    9760 OW          16.4380     6.4840    70.6490 OW            1 RES     
    9761 HW1         15.6990     6.2100    70.0340 HW1           1 RES     
    9762 HW2         16.5320     7.4800    70.6350 HW2           1 RES     
    9763 OW          49.3410    35.8760    69.4560 OW            1 RES     
    9764 HW1         49.6050    36.8180    69.2490 HW1           1 RES     
    9765 HW2         50.1000    35.2620    69.2370 HW2           1 RES     
    9766 OW          24.0350    15.3680    75.0590 OW            1 RES     
    9767 HW1         23.6350    16.0850    75.6290 HW1           1 RES     
    9768 HW2         24.7230    15.7680    74.4530 HW2           1 RES     
    9769 OW          46.2730    25.3540    74.6970 OW            1 RES     
    9770 HW1         47.1780    24.9830    74.9000 HW1           1 RES     
    9771 HW2         45.9480    24.9830    73.8260 HW2           1 RES     
    9772 OW          25.5610    49.7620    78.6650 OW            1 RES     
    9773 HW1         24.9130    49.0130    78.8020 HW1           1 RES     
    9774 HW2         25.0620    50.5930    78.4160 HW2           1 RES     
    9775 OW          24.9070     8.2110    71.3870 OW            1 RES     
    9776 HW1         24.9720     8.1640    72.3830 HW1           1 RES     
    9777 HW2         25.3540     9.0450    71.0620 HW2           1 RES     
    9778 OW          49.3050    28.5840    74.3840 OW            1 RES     
    9779 HW1         48.3380    28.8220    74.3040 HW1           1 RES     
    9780 HW2         49.4350    27.6270    74.1240 HW2           1 RES     
    9781 OW          23.7810    48.8260    72.4730 OW            1 RES     
    9782 HW1         23.1460    48.0550    72.4970 HW1           1 RES     
    9783 HW2         23.2690    49.6840    72.5280 HW2           1 RES     
    9784 OW          13.5870    23.7200    77.6400 OW            1 RES     
    9785 HW1         12.8680    24.4090    77.7310 HW1           1 RES     
    9786 HW2         14.4820    24.1580    77.7260 HW2           1 RES     
    9787 OW          20.8890    49.5510    73.8230 OW            1 RES     
    9788 HW1         21.2720    48.7380    74.2610 HW1           1 RES     
    9789 HW2         20.9370    49.4490    72.8290 HW2           1 RES     
    9790 OW          10.5230    41.8590    72.4420 OW            1 RES     
    9791 HW1          9.8350    42.5410    72.1970 HW1           1 RES     
    9792 HW2         10.2660    40.9730    72.0550 HW2           1 RES     
    9793 OW          41.3500     9.0070    68.8760 OW            1 RES     
    9794 HW1         42.2910     8.9080    69.1990 HW1           1 RES     
    9795 HW2         41.3540     9.3100    67.9230 HW2           1 RES     
    9796 OW          26.6300    23.3400    67.1480 OW            1 RES     
    9797 HW1         26.9190    23.1140    68.0780 HW1           1 RES     
    9798 HW2         25.6320    23.3950    67.1120 HW2           1 RES     
    9799 OW          19.6730    31.4860    68.7780 OW            1 RES     
    9800 HW1         18.6960    31.6920    68.7410 HW1           1 RES     
    9801 HW2         20.1820    32.1910    68.2840 HW2           1 RES     
    9802 OW          48.5220    31.8540    72.8590 OW            1 RES     
    9803 HW1         47.6740    32.0390    72.3640 HW1           1 RES     
    9804 HW2         48.9310    32.7170    73.1560 HW2           1 RES     
    9805 OW          35.4300    51.8490    67.7400 OW            1 RES     
    9806 HW1         36.1380    52.3160    67.2120 HW1           1 RES     
    9807 HW2         35.7300    51.7520    68.6890 HW2           1 RES     
    9808 OW           9.0870     8.1280    73.8340 OW            1 RES     
    9809 HW1          8.8910     7.3760    74.4630 HW1           1 RES     
    9810 HW2          9.8070     7.8510    73.1970 HW2           1 RES     
    9811 OW           6.8010    28.8580    69.9360 OW            1 RES     
    9812 HW1          7.5080    29.4970    70.2370 HW1           1 RES     
    9813 HW2          7.0360    27.9340    70.2380 HW2           1 RES     
    9814 OW          21.9570    18.4440    74.1750 OW            1 RES     
    9815 HW1         21.0830    18.9220    74.2630 HW1           1 RES     
    9816 HW2         22.1850    18.0050    75.0450 HW2           1 RES     
    9817 OW          16.8420    49.1440    73.6280 OW            1 RES     
    9818 HW1         17.0230    48.1880    73.3950 HW1           1 RES     
    9819 HW2         17.5400    49.4690    74.2670 HW2           1 RES     
    9820 OW           3.7280    31.4350    75.6820 OW            1 RES     
    9821 HW1          2.7530    31.4160    75.9000 HW1           1 RES     
    9822 HW2          3.8500    31.6530    74.7140 HW2           1 RES     
    9823 OW          26.9270    49.2960    75.1730 OW            1 RES     
    9824 HW1         26.5110    49.4040    76.0760 HW1           1 RES     
    9825 HW2         26.2880    49.6140    74.4720 HW2           1 RES     
    9826 OW          47.8950    46.8460    73.4010 OW            1 RES     
    9827 HW1         48.7640    47.1540    73.7870 HW1           1 RES     
    9828 HW2         48.0400    46.0040    72.8800 HW2           1 RES     
    9829 OW          27.1280     8.3220    72.7910 OW            1 RES     
    9830 HW1         28.0950     8.0700    72.7860 HW1           1 RES     
    9831 HW2         27.0430     9.3190    72.7880 HW2           1 RES     
    9832 OW          50.5290    35.3500    72.4640 OW            1 RES     
    9833 HW1         49.9010    35.8760    73.0360 HW1           1 RES     
    9834 HW2         50.0340    34.9770    71.6790 HW2           1 RES     
    9835 OW          22.7350    23.0800    78.6700 OW            1 RES     
    9836 HW1         23.1050    22.1530    78.6360 HW1           1 RES     
    9837 HW2         22.0530    23.1950    77.9470 HW2           1 RES     
    9838 OW          15.1430    47.4050    69.0480 OW            1 RES     
    9839 HW1         15.8790    47.6960    68.4370 HW1           1 RES     
    9840 HW2         15.3080    46.4640    69.3450 HW2           1 RES     
    9841 OW          54.1900    34.3590    78.6210 OW            1 RES     
    9842 HW1         54.7810    35.1430    78.8100 HW1           1 RES     
    9843 HW2         54.7530    33.5450    78.4740 HW2           1 RES     
    9844 OW          44.0650    13.1400    77.7480 OW            1 RES     
    9845 HW1         44.7830    13.7950    77.9820 HW1           1 RES     
    9846 HW2         44.4750    12.2450    77.5710 HW2           1 RES     
    9847 OW          54.4900    21.1670    78.3080 OW            1 RES     
    9848 HW1         53.4930    21.2160    78.3460 HW1           1 RES     
    9849 HW2         54.7700    20.2430    78.0450 HW2           1 RES     
    9850 OW          40.9030    29.8340    69.3420 OW            1 RES     
    9851 HW1         39.9940    29.4790    69.5590 HW1           1 RES     
    9852 HW2         40.8650    30.8320    69.2780 HW2           1 RES     
    9853 OW          52.8070    31.1590    68.0450 OW            1 RES     
    9854 HW1         52.7970    30.8150    67.1070 HW1           1 RES     
    9855 HW2         52.8530    32.1580    68.0340 HW2           1 RES     
    9856 OW          42.1860    29.7240    72.2230 OW            1 RES     
    9857 HW1         42.7290    30.2270    72.8950 HW1           1 RES     
    9858 HW2         41.7340    28.9520    72.6700 HW2           1 RES     
    9859 OW          13.6280    44.9080    71.4310 OW            1 RES     
    9860 HW1         12.6850    45.1150    71.6880 HW1           1 RES     
    9861 HW2         13.8450    45.3590    70.5650 HW2           1 RES     
    9862 OW           3.4980    41.4520    71.6590 OW            1 RES     
    9863 HW1          3.7640    40.4900    71.6170 HW1           1 RES     
    9864 HW2          2.5010    41.5230    71.6860 HW2           1 RES     
    9865 OW          31.6960    54.1110    76.0170 OW            1 RES     
    9866 HW1         30.9620    54.7850    76.0910 HW1           1 RES     
    9867 HW2         31.3040    53.1920    75.9860 HW2           1 RES     
    9868 OW          21.1120    43.4290    75.9980 OW            1 RES     
    9869 HW1         21.7810    42.7070    76.1710 HW1           1 RES     
    9870 HW2         21.2210    43.7680    75.0630 HW2           1 RES     
    9871 OW          34.7170    44.7880    67.7270 OW            1 RES     
    9872 HW1         34.0890    44.0840    67.3980 HW1           1 RES     
    9873 HW2         34.1950    45.5760    68.0530 HW2           1 RES     
    9874 OW          37.9600    14.9030    70.9320 OW            1 RES     
    9875 HW1         37.7400    15.2790    70.0330 HW1           1 RES     
    9876 HW2         38.2280    15.6440    71.5480 HW2           1 RES     
    9877 OW           9.4590    41.1410    75.2660 OW            1 RES     
    9878 HW1          8.5120    41.3290    75.5210 HW1           1 RES     
    9879 HW2          9.5380    41.1200    74.2690 HW2           1 RES     
    9880 OW          40.2890    20.6430    67.7430 OW            1 RES     
    9881 HW1         40.0380    19.9140    67.1070 HW1           1 RES     
    9882 HW2         41.2450    20.8980    67.5970 HW2           1 RES     
    9883 OW          48.6170    48.6840    76.2270 OW            1 RES     
    9884 HW1         49.2620    48.0890    76.7060 HW1           1 RES     
    9885 HW2         47.6970    48.5400    76.5910 HW2           1 RES     
    9886 OW          47.6130    46.5010    78.8090 OW            1 RES     
    9887 HW1         48.0670    47.2700    78.3620 HW1           1 RES     
    9888 HW2         47.8740    45.6480    78.3550 HW2           1 RES     
    9889 OW          15.7760     9.7800    68.3190 OW            1 RES     
    9890 HW1         16.0590    10.7390    68.3380 HW1           1 RES     
    9891 HW2         15.0790     9.6510    67.6130 HW2           1 RES     
    9892 OW          41.6350    17.9610    73.1920 OW            1 RES     
    9893 HW1         41.3430    17.1910    72.6260 HW1           1 RES     
    9894 HW2         40.8800    18.6090    73.2900 HW2           1 RES     
    9895 OW          52.5790    24.5770    77.5770 OW            1 RES     
    9896 HW1         53.5230    24.8200    77.3550 HW1           1 RES     
    9897 HW2         52.5660    23.7090    78.0740 HW2           1 RES     
    9898 OW          21.2970    32.9830    75.7950 OW            1 RES     
    9899 HW1         21.6200    33.3590    74.9270 HW1           1 RES     
    9900 HW2         21.5600    32.0200    75.8600 HW2           1 RES     
    9901 OW          44.7240    27.6860    71.8450 OW            1 RES     
    9902 HW1         43.8720    27.1650    71.9010 HW1           1 RES     
    9903 HW2         44.7040    28.4290    72.5150 HW2           1 RES     
    9904 OW          53.9380    29.4240    71.9360 OW            1 RES     
    9905 HW1         54.7860    28.9380    72.1430 HW1           1 RES     
    9906 HW2         53.7620    29.3860    70.9520 HW2           1 RES     
    9907 OW          30.5230    50.6460    72.0990 OW            1 RES     
    9908 HW1         31.4400    51.0210    72.2280 HW1           1 RES     
    9909 HW2         29.8730    51.3930    71.9620 HW2           1 RES     
    9910 OW          47.4130    14.4830    68.2730 OW            1 RES     
    9911 HW1         48.2300    14.0530    67.8900 HW1           1 RES     
    9912 HW2         47.3520    15.4280    67.9530 HW2           1 RES     
    9913 OW          47.2330    36.2660    76.3020 OW            1 RES     
    9914 HW1         47.2510    36.3850    77.2940 HW1           1 RES     
    9915 HW2         46.9730    35.3250    76.0830 HW2           1 RES     
    9916 OW          16.1850    13.9610    72.7920 OW            1 RES     
    9917 HW1         16.1300    14.8960    72.4430 HW1           1 RES     
    9918 HW2         17.1380    13.6580    72.7840 HW2           1 RES     
    9919 OW           5.3810    30.6210    73.1690 OW            1 RES     
    9920 HW1          5.3010    30.9720    72.2370 HW1           1 RES     
    9921 HW2          4.5810    30.0600    73.3840 HW2           1 RES     
    9922 OW          42.4600    51.3630    69.0120 OW            1 RES     
    9923 HW1         43.3840    51.7400    68.9550 HW1           1 RES     
    9924 HW2         41.7940    52.1100    69.0180 HW2           1 RES     
    9925 OW          12.1300    43.9400    73.9620 OW            1 RES     
    9926 HW1         11.4610    44.3700    73.3570 HW1           1 RES     
    9927 HW2         13.0350    43.9770    73.5380 HW2           1 RES     
    9928 OW          17.8100    33.0790    76.4950 OW            1 RES     
    9929 HW1         17.7640    32.3400    75.8240 HW1           1 RES     
    9930 HW2         17.8870    33.9560    76.0210 HW2           1 RES     
    9931 OW          53.8920    32.7300    73.3010 OW            1 RES     
    9932 HW1         54.7850    32.8760    72.8770 HW1           1 RES     
    9933 HW2         53.6680    33.5110    73.8840 HW2           1 RES     
    9934 OW          32.2720    14.9950    77.4470 OW            1 RES     
    9935 HW1         31.2810    14.8730    77.5040 HW1           1 RES     
    9936 HW2         32.4810    15.9660    77.3260 HW2           1 RES     
    9937 OW          29.3630    35.4560    73.3890 OW            1 RES     
    9938 HW1         28.3840    35.2540    73.3650 HW1           1 RES     
    9939 HW2         29.5020    36.4430    73.3090 HW2           1 RES     
    9940 OW          36.7050    12.8530    67.5950 OW            1 RES     
    9941 HW1         37.0410    12.0450    67.1110 HW1           1 RES     
    9942 HW2         35.7800    13.0700    67.2800 HW2           1 RES     
    9943 OW          30.6500    45.0440    77.1530 OW            1 RES     
    9944 HW1         31.3810    45.0950    77.8320 HW1           1 RES     
    9945 HW2         30.6380    45.8850    76.6110 HW2           1 RES     
    9946 OW          34.6830    53.9030    67.9940 OW            1 RES     
    9947 HW1         35.0150    54.7860    68.3240 HW1           1 RES     
    9948 HW2         33.7150    53.9780    67.7550 HW2           1 RES     
    9949 OW          37.3610    37.3530    77.8230 OW            1 RES     
    9950 HW1         37.9440    36.6940    77.3480 HW1           1 RES     
    9951 HW2         37.2960    38.1920    77.2820 HW2           1 RES     
    9952 OW          46.5710    11.1840    68.8570 OW            1 RES     
    9953 HW1         46.9840    11.4200    69.7360 HW1           1 RES     
    9954 HW2         46.8960    11.8180    68.1540 HW2           1 RES     
    9955 OW          52.4470    23.3360    71.1880 OW            1 RES     
    9956 HW1         52.1430    22.3840    71.1840 HW1           1 RES     
    9957 HW2         51.9180    23.8530    71.8610 HW2           1 RES     
    9958 OW          29.4900    41.2930    71.8180 OW            1 RES     
    9959 HW1         29.9480    42.1770    71.7270 HW1           1 RES     
    9960 HW2         28.5080    41.4090    71.6730 HW2           1 RES     
    9961 OW          47.3410    41.9990    76.6430 OW            1 RES     
    9962 HW1         47.6070    42.3160    77.5530 HW1           1 RES     
    9963 HW2         46.3490    41.8780    76.6080 HW2           1 RES     
    9964 OW          18.9540    42.7830    75.6380 OW            1 RES     
    9965 HW1         19.0300    43.5710    75.0270 HW1           1 RES     
    9966 HW2         18.0980    42.2990    75.4540 HW2           1 RES     
    9967 OW          44.3320    42.3480    78.6550 OW            1 RES     
    9968 HW1         44.0230    41.4010    78.7270 HW1           1 RES     
    9969 HW2         45.3180    42.3670    78.4890 HW2           1 RES     
    9970 OW          36.2950    22.6510    76.3890 OW            1 RES     
    9971 HW1         36.7390    22.9620    75.5490 HW1           1 RES     
    9972 HW2         36.7960    23.0000    77.1810 HW2           1 RES     
    9973 OW          52.3240    41.3940    73.8820 OW            1 RES     
    9974 HW1         52.9100    40.6610    73.5400 HW1           1 RES     
    9975 HW2         52.8800    42.2050    74.0710 HW2           1 RES     
    9976 OW          15.8970    16.0650    67.1510 OW            1 RES     
    9977 HW1         14.9940    16.4930    67.1610 HW1           1 RES     
    9978 HW2         16.6030    16.7740    67.1540 HW2           1 RES     
    9979 OW          30.2770    24.5890    75.2560 OW            1 RES     
    9980 HW1         30.8890    23.8000    75.2920 HW1           1 RES     
    9981 HW2         29.7890    24.5930    74.3830 HW2           1 RES     
    9982 OW          21.7600    25.4600    72.4560 OW            1 RES     
    9983 HW1         21.1110    25.8380    73.1160 HW1           1 RES     
    9984 HW2         22.6560    25.3590    72.8880 HW2           1 RES     
    9985 OW          19.9650    54.4070    73.0720 OW            1 RES     
    9986 HW1         19.1500    54.0550    72.6140 HW1           1 RES     
    9987 HW2         20.6850    53.7130    73.0520 HW2           1 RES     
    9988 OW          38.1110    54.6940    78.6420 OW            1 RES     
    9989 HW1         38.4750    53.7790    78.8110 HW1           1 RES     
    9990 HW2         37.3060    54.6290    78.0510 HW2           1 RES     
    9991 OW          22.6320    42.4710    67.9860 OW            1 RES     
    9992 HW1         23.1590    41.6290    67.8750 HW1           1 RES     
    9993 HW2         22.1030    42.6460    67.1560 HW2           1 RES     
    9994 OW          16.5560    29.5180    67.1070 OW            1 RES     
    9995 HW1         16.0020    30.3480    67.1650 HW1           1 RES     
    9996 HW2         17.4570    29.6900    67.5040 HW2           1 RES     
    9997 OW          30.1660     7.7720    74.6030 OW            1 RES     
    9998 HW1         30.3020     8.7620    74.5630 HW1           1 RES     
    9999 HW2         29.1860     7.5700    74.6300 HW2           1 RES     
   10000 OW          21.8860    43.4550    69.8070 OW            1 RES     
   10001 HW1         22.4130    44.2920    69.6680 HW1           1 RES     
   10002 HW2         20.9410    43.6900    70.0380 HW2           1 RES     
   10003 OW          39.6650    28.2380    73.4950 OW            1 RES     
   10004 HW1         40.0090    29.0050    74.0350 HW1           1 RES     
   10005 HW2         38.8780    27.8300    73.9580 HW2           1 RES     
   10006 OW          21.9890    47.5360    76.6970 OW            1 RES     
   10007 HW1         21.4020    46.7300    76.6330 HW1           1 RES     
   10008 HW2         22.5980    47.4440    77.4860 HW2           1 RES     
   10009 OW          51.4660    18.7010    70.8200 OW            1 RES     
   10010 HW1         52.3080    18.9150    71.3140 HW1           1 RES     
   10011 HW2         50.9510    19.5430    70.6560 HW2           1 RES     
   10012 OW          35.5180    17.7530    76.1890 OW            1 RES     
   10013 HW1         36.2690    18.2920    76.5690 HW1           1 RES     
   10014 HW2         34.9270    17.4330    76.9290 HW2           1 RES     
   10015 OW          38.5710    34.7610    74.7400 OW            1 RES     
   10016 HW1         37.8180    34.1880    74.4180 HW1           1 RES     
   10017 HW2         38.2430    35.6960    74.8790 HW2           1 RES     
   10018 OW          38.3930    17.6520    68.9130 OW            1 RES     
   10019 HW1         39.2960    17.3790    68.5830 HW1           1 RES     
   10020 HW2         37.7150    16.9730    68.6300 HW2           1 RES     
   10021 OW          35.8110    27.5540    67.1070 OW            1 RES     
   10022 HW1         36.4300    28.3360    67.1700 HW1           1 RES     
   10023 HW2         36.0580    26.8760    67.7990 HW2           1 RES     
   10024 OW          15.2610    51.6920    77.2390 OW            1 RES     
   10025 HW1         16.1850    51.6690    77.6200 HW1           1 RES     
   10026 HW2         14.7470    50.8980    77.5620 HW2           1 RES     
   10027 OW           9.0930    38.3310    75.0140 OW            1 RES     
   10028 HW1          8.6550    38.1160    74.1420 HW1           1 RES     
   10029 HW2          9.8320    38.9880    74.8640 HW2           1 RES     
   10030 OW          38.0630    15.1380    73.7100 OW            1 RES     
   10031 HW1         39.0400    15.3420    73.6660 HW1           1 RES     
   10032 HW2         37.5400    15.9850    73.6100 HW2           1 RES     
   10033 OW           4.3570    22.9840    68.3730 OW            1 RES     
   10034 HW1          3.4130    22.8570    68.0740 HW1           1 RES     
   10035 HW2          4.8850    22.1580    68.1730 HW2           1 RES     
   10036 OW          19.8840    36.9970    72.8770 OW            1 RES     
   10037 HW1         19.0730    36.4270    72.7560 HW1           1 RES     
   10038 HW2         20.6880    36.4140    72.9970 HW2           1 RES     
   10039 OW          28.6890     8.9770    78.1300 OW            1 RES     
   10040 HW1         28.0650     9.3560    78.8120 HW1           1 RES     
   10041 HW2         28.2910     8.1470    77.7380 HW2           1 RES     
   10042 OW          21.8420     3.0210    75.6060 OW            1 RES     
   10043 HW1         22.0810     2.5200    76.4370 HW1           1 RES     
   10044 HW2         22.1770     2.5220    74.8070 HW2           1 RES     
   10045 OW           8.3470    27.3620    71.9130 OW            1 RES     
   10046 HW1          7.9450    26.7920    72.6290 HW1           1 RES     
   10047 HW2          9.0570    26.8460    71.4340 HW2           1 RES     
   10048 OW           7.5730    50.8640    76.8240 OW            1 RES     
   10049 HW1          7.9590    51.1710    77.6930 HW1           1 RES     
   10050 HW2          7.4550    51.6490    76.2150 HW2           1 RES     
   10051 OW          41.7510    42.0720    77.2090 OW            1 RES     
   10052 HW1         41.0420    42.7410    77.4270 HW1           1 RES     
   10053 HW2         42.6480    42.5140    77.2430 HW2           1 RES     
   10054 OW          45.3120    36.7470    69.1850 OW            1 RES     
   10055 HW1         44.9910    36.6810    70.1290 HW1           1 RES     
   10056 HW2         46.0650    37.4020    69.1330 HW2           1 RES     
   10057 OW          49.9200    18.3240    68.0100 OW            1 RES     
   10058 HW1         50.6220    19.0260    68.1180 HW1           1 RES     
   10059 HW2         49.0350    18.6900    68.2980 HW2           1 RES     
   10060 OW          14.5640    20.1850    74.9540 OW            1 RES     
   10061 HW1         14.7680    19.2710    75.3030 HW1           1 RES     
   10062 HW2         14.8980    20.2660    74.0150 HW2           1 RES     
   10063 OW          32.1600    27.1090    78.7870 OW            1 RES     
   10064 HW1         32.7810    26.3260    78.8080 HW1           1 RES     
   10065 HW2         32.6910    27.9560    78.7590 HW2           1 RES     
   10066 OW          28.8230    29.6220    74.9730 OW            1 RES     
   10067 HW1         28.9190    30.3260    75.6760 HW1           1 RES     
   10068 HW2         29.5430    28.9370    75.0850 HW2           1 RES     
   10069 OW          27.5290    10.5670    69.9020 OW            1 RES     
   10070 HW1         27.7330     9.8290    69.2590 HW1           1 RES     
   10071 HW2         27.2180    10.1780    70.7690 HW2           1 RES     
   10072 OW          11.2960    30.8220    74.8390 OW            1 RES     
   10073 HW1         12.0660    31.4530    74.9310 HW1           1 RES     
   10074 HW2         11.6110    29.8860    74.9950 HW2           1 RES     
   10075 OW          16.5690    40.2900    67.1330 OW            1 RES     
   10076 HW1         17.2880    40.9850    67.1090 HW1           1 RES     
   10077 HW2         15.6750    40.7360    67.1690 HW2           1 RES     
   10078 OW           7.2350    32.6310    72.9410 OW            1 RES     
   10079 HW1          8.2330    32.6270    72.8950 HW1           1 RES     
   10080 HW2          6.9150    33.5500    73.1690 HW2           1 RES     
   10081 OW          20.0080    41.3840    69.4880 OW            1 RES     
   10082 HW1         19.7350    40.4240    69.5410 HW1           1 RES     
   10083 HW2         21.0020    41.4540    69.5700 HW2           1 RES     
   10084 OW          36.2040    11.4770    69.3240 OW            1 RES     
   10085 HW1         35.8610    10.5460    69.4460 HW1           1 RES     
   10086 HW2         35.4330    12.1070    69.2280 HW2           1 RES     
   10087 OW          31.7570    39.1030    69.9350 OW            1 RES     
   10088 HW1         31.4790    38.2880    70.4410 HW1           1 RES     
   10089 HW2         31.3750    39.0700    69.0120 HW2           1 RES     
   10090 OW          23.9260    37.6080    77.9670 OW            1 RES     
   10091 HW1         24.1240    38.5270    78.3060 HW1           1 RES     
   10092 HW2         23.6540    37.6580    77.0060 HW2           1 RES     
   10093 OW          16.0520    42.7480    71.9280 OW            1 RES     
   10094 HW1         16.4500    43.4750    71.3700 HW1           1 RES     
   10095 HW2         15.0540    42.7910    71.8700 HW2           1 RES     
   10096 OW          40.3300     7.2770    75.2430 OW            1 RES     
   10097 HW1         40.8410     8.1110    75.0400 HW1           1 RES     
   10098 HW2         40.2020     6.7510    74.4010 HW2           1 RES     
   10099 OW          28.7780    11.2540    72.3950 OW            1 RES     
   10100 HW1         29.0180    10.2970    72.5560 HW1           1 RES     
   10101 HW2         27.7950    11.3800    72.5320 HW2           1 RES     
   10102 OW          24.7700    33.5320    75.4730 OW            1 RES     
   10103 HW1         25.3580    33.2770    74.7050 HW1           1 RES     
   10104 HW2         23.8640    33.7840    75.1300 HW2           1 RES     
   10105 OW          33.8610    30.7380    71.4470 OW            1 RES     
   10106 HW1         33.2390    30.0060    71.7240 HW1           1 RES     
   10107 HW2         33.3810    31.6140    71.4780 HW2           1 RES     
   10108 OW          13.9810    15.3450    70.2450 OW            1 RES     
   10109 HW1         14.2170    15.6060    69.3090 HW1           1 RES     
   10110 HW2         14.3100    16.0450    70.8800 HW2           1 RES     
   10111 OW          12.6230    35.3280    67.6610 OW            1 RES     
   10112 HW1         12.1980    36.2270    67.7540 HW1           1 RES     
   10113 HW2         11.9680    34.6190    67.9220 HW2           1 RES     
   10114 OW           6.9530     8.5430    75.3410 OW            1 RES     
   10115 HW1          6.8680     8.7310    74.3640 HW1           1 RES     
   10116 HW2          6.9420     7.5550    75.4930 HW2           1 RES     
   10117 OW          33.9250    29.6040    74.5920 OW            1 RES     
   10118 HW1         34.2280    29.5830    75.5440 HW1           1 RES     
   10119 HW2         34.7120    29.7680    73.9960 HW2           1 RES     
   10120 OW          33.8700    15.8490    67.7830 OW            1 RES     
   10121 HW1         34.7030    16.2000    67.3560 HW1           1 RES     
   10122 HW2         33.3420    15.3320    67.1090 HW2           1 RES     
   10123 OW          19.1340    44.5820    67.6200 OW            1 RES     
   10124 HW1         19.0540    45.4360    67.1070 HW1           1 RES     
   10125 HW2         19.7020    43.9370    67.1080 HW2           1 RES     
   10126 OW          40.9410    49.7720    68.9630 OW            1 RES     
   10127 HW1         40.1710    50.2340    68.5260 HW1           1 RES     
   10128 HW2         40.9760    50.0240    69.9310 HW2           1 RES     
   10129 OW          41.0360     4.3010    68.3670 OW            1 RES     
   10130 HW1         41.7080     4.5420    67.6680 HW1           1 RES     
   10131 HW2         41.4960     4.1930    69.2490 HW2           1 RES     
   10132 OW          43.2930     4.2740    70.5150 OW            1 RES     
   10133 HW1         43.5580     3.3110    70.4780 HW1           1 RES     
   10134 HW2         44.1140     4.8460    70.5100 HW2           1 RES     
   10135 OW          38.4160    19.7390    72.8630 OW            1 RES     
   10136 HW1         37.7360    19.0170    72.7370 HW1           1 RES     
   10137 HW2         38.4980    20.2720    72.0200 HW2           1 RES     
   10138 OW          23.5010    19.4830    69.9720 OW            1 RES     
   10139 HW1         24.0190    18.6290    69.9410 HW1           1 RES     
   10140 HW2         23.9870    20.1880    69.4560 HW2           1 RES     
   10141 OW          10.6040    22.5960    78.6570 OW            1 RES     
   10142 HW1         11.4310    23.1360    78.8060 HW1           1 RES     
   10143 HW2         10.7480    21.9700    77.8900 HW2           1 RES     
   10144 OW          37.9330     6.4230    72.9200 OW            1 RES     
   10145 HW1         36.9700     6.2350    72.7300 HW1           1 RES     
   10146 HW2         38.0800     6.4430    73.9100 HW2           1 RES     
   10147 OW          21.5480    15.6550    67.4170 OW            1 RES     
   10148 HW1         21.4580    16.6430    67.2980 HW1           1 RES     
   10149 HW2         22.4530    15.3620    67.1070 HW2           1 RES     
   10150 OW          47.5990    19.8000    76.8060 OW            1 RES     
   10151 HW1         47.3770    19.7010    77.7760 HW1           1 RES     
   10152 HW2         47.6280    18.8970    76.3770 HW2           1 RES     
   10153 OW          25.6670    19.7910    70.8200 OW            1 RES     
   10154 HW1         26.2030    19.4390    70.0530 HW1           1 RES     
   10155 HW2         26.2390    19.8250    71.6400 HW2           1 RES     
   10156 OW          17.0890    47.1560    75.3380 OW            1 RES     
   10157 HW1         17.6550    46.3950    75.0220 HW1           1 RES     
   10158 HW2         16.1330    46.8650    75.3810 HW2           1 RES     
   10159 OW          31.2960    34.0780    67.5330 OW            1 RES     
   10160 HW1         30.4450    33.5890    67.3480 HW1           1 RES     
   10161 HW2         31.2310    34.5380    68.4190 HW2           1 RES     
   10162 OW           3.3920    13.6590    74.8280 OW            1 RES     
   10163 HW1          3.2290    12.6740    74.8830 HW1           1 RES     
   10164 HW2          4.2750    13.8740    75.2450 HW2           1 RES     
   10165 OW          27.7080     2.9500    69.0040 OW            1 RES     
   10166 HW1         27.3240     3.8670    68.9070 HW1           1 RES     
   10167 HW2         28.7060     3.0050    69.0220 HW2           1 RES     
   10168 OW          45.3000    10.9880    73.4250 OW            1 RES     
   10169 HW1         44.5680    10.6490    74.0150 HW1           1 RES     
   10170 HW2         45.0040    11.8300    72.9750 HW2           1 RES     
   10171 OW          25.2410    25.5440    67.3950 OW            1 RES     
   10172 HW1         24.8630    25.8860    68.2540 HW1           1 RES     
   10173 HW2         26.2360    25.4800    67.4700 HW2           1 RES     
   10174 OW          53.5140    20.1970    73.8480 OW            1 RES     
   10175 HW1         52.8190    20.4810    73.1880 HW1           1 RES     
   10176 HW2         53.2470    20.4970    74.7640 HW2           1 RES     
   10177 OW          11.7730    23.8150    75.9090 OW            1 RES     
   10178 HW1         11.9830    22.9430    76.3500 HW1           1 RES     
   10179 HW2         10.8030    24.0260    76.0290 HW2           1 RES     
   10180 OW          11.4960    32.3290    72.9940 OW            1 RES     
   10181 HW1         10.5020    32.3690    72.8950 HW1           1 RES     
   10182 HW2         11.8740    33.2540    72.9410 HW2           1 RES     
   10183 OW          11.7630    28.9190    71.3380 OW            1 RES     
   10184 HW1         12.6520    29.1780    70.9610 HW1           1 RES     
   10185 HW2         11.8850    28.1890    72.0100 HW2           1 RES     
   10186 OW          36.8420    34.1270    77.0570 OW            1 RES     
   10187 HW1         37.7000    34.5730    76.8080 HW1           1 RES     
   10188 HW2         36.1450    34.8210    77.2390 HW2           1 RES     
   10189 OW          41.2750    20.5670    77.8450 OW            1 RES     
   10190 HW1         40.7690    21.4010    77.6260 HW1           1 RES     
   10191 HW2         40.6480    19.8860    78.2240 HW2           1 RES     
   10192 OW          29.0810    17.5720    68.0450 OW            1 RES     
   10193 HW1         28.7410    18.4010    68.4890 HW1           1 RES     
   10194 HW2         28.9550    16.7910    68.6570 HW2           1 RES     
   10195 OW          15.3940    13.7040    70.7480 OW            1 RES     
   10196 HW1         15.3560    12.7520    71.0490 HW1           1 RES     
   10197 HW2         16.2750    13.8800    70.3080 HW2           1 RES     
   10198 OW           6.9730    23.5750    70.4130 OW            1 RES     
   10199 HW1          7.0490    23.6180    69.4170 HW1           1 RES     
   10200 HW2          7.6220    22.9030    70.7690 HW2           1 RES     
   10201 OW          42.8720    49.1540    70.6970 OW            1 RES     
   10202 HW1         43.2410    49.8060    71.3590 HW1           1 RES     
   10203 HW2         43.4400    49.1580    69.8730 HW2           1 RES     
   10204 OW          52.8700    41.0690    71.3150 OW            1 RES     
   10205 HW1         53.8350    41.2020    71.5360 HW1           1 RES     
   10206 HW2         52.6300    40.1050    71.4290 HW2           1 RES     
   10207 OW          14.9600     9.4070    72.8230 OW            1 RES     
   10208 HW1         15.0180     9.8720    71.9400 HW1           1 RES     
   10209 HW2         15.8750     9.1240    73.1120 HW2           1 RES     
   10210 OW          31.8160     2.5610    69.4430 OW            1 RES     
   10211 HW1         32.1620     3.4390    69.1140 HW1           1 RES     
   10212 HW2         30.8340     2.5000    69.2630 HW2           1 RES     
   10213 OW          30.5110    17.6770    77.6450 OW            1 RES     
   10214 HW1         30.0950    16.8240    77.3320 HW1           1 RES     
   10215 HW2         31.3520    17.8480    77.1310 HW2           1 RES     
   10216 OW          26.8160    39.7430    73.7120 OW            1 RES     
   10217 HW1         27.2940    39.0950    74.3050 HW1           1 RES     
   10218 HW2         25.9860    40.0630    74.1690 HW2           1 RES     
   10219 OW          47.1180    33.4900    74.8780 OW            1 RES     
   10220 HW1         48.0600    33.6430    75.1730 HW1           1 RES     
   10221 HW2         47.0190    32.5510    74.5480 HW2           1 RES     
   10222 OW          25.8810    13.9880    73.8780 OW            1 RES     
   10223 HW1         26.4770    14.7380    73.5920 HW1           1 RES     
   10224 HW2         26.0290    13.1980    73.2830 HW2           1 RES     
   10225 OW          43.6280    54.7850    69.2810 OW            1 RES     
   10226 HW1         43.1640    53.9270    69.0640 HW1           1 RES     
   10227 HW2         44.6150    54.6300    69.3260 HW2           1 RES     
   10228 OW          23.0550    37.3010    70.9930 OW            1 RES     
   10229 HW1         23.9690    37.0090    70.7130 HW1           1 RES     
   10230 HW2         22.3910    36.5910    70.7590 HW2           1 RES     
   10231 OW          27.7940    31.9100    78.2370 OW            1 RES     
   10232 HW1         26.8160    32.0980    78.3140 HW1           1 RES     
   10233 HW2         28.3030    32.5520    78.8110 HW2           1 RES     
   10234 OW          27.0070    52.6760    74.8920 OW            1 RES     
   10235 HW1         26.1060    53.0790    74.7310 HW1           1 RES     
   10236 HW2         26.9340    51.6790    74.8800 HW2           1 RES     
   10237 OW          15.5510    39.0520    69.7080 OW            1 RES     
   10238 HW1         14.5780    39.2330    69.8460 HW1           1 RES     
   10239 HW2         16.0420    39.1930    70.5680 HW2           1 RES     
   10240 OW          33.9270     9.8840    75.7170 OW            1 RES     
   10241 HW1         34.0640     9.0570    76.2600 HW1           1 RES     
   10242 HW2         33.7120     9.6330    74.7730 HW2           1 RES     
   10243 OW          28.4630    48.7260    78.2570 OW            1 RES     
   10244 HW1         28.2800    49.1010    77.3490 HW1           1 RES     
   10245 HW2         27.6320    48.7740    78.8120 HW2           1 RES     
   10246 OW          25.5300    41.5900    78.8120 OW            1 RES     
   10247 HW1         25.4270    42.5840    78.7780 HW1           1 RES     
   10248 HW2         26.4390    41.3370    78.4820 HW2           1 RES     
   10249 OW          46.1200    40.6890    67.5720 OW            1 RES     
   10250 HW1         45.1290    40.7430    67.4570 HW1           1 RES     
   10251 HW2         46.4190    39.7420    67.4500 HW2           1 RES     
   10252 OW          34.8310    45.8250    78.8110 OW            1 RES     
   10253 HW1         34.8470    44.8250    78.8120 HW1           1 RES     
   10254 HW2         33.8830    46.1430    78.8090 HW2           1 RES     
   10255 OW          32.5170    25.6800    76.7220 OW            1 RES     
   10256 HW1         33.3300    26.2600    76.6770 HW1           1 RES     
   10257 HW2         31.9200    25.8810    75.9440 HW2           1 RES     
   10258 OW          37.9090    19.8190    67.6560 OW            1 RES     
   10259 HW1         38.0870    20.7980    67.7460 HW1           1 RES     
   10260 HW2         36.9300    19.6460    67.7610 HW2           1 RES     
   10261 OW          52.5470    37.1680    68.2250 OW            1 RES     
   10262 HW1         51.9300    37.9160    68.4690 HW1           1 RES     
   10263 HW2         53.4600    37.5350    68.0450 HW2           1 RES     
   10264 OW          50.3340    47.1910    78.4840 OW            1 RES     
   10265 HW1         51.3250    47.3240    78.4610 HW1           1 RES     
   10266 HW2         50.1290    46.2120    78.5060 HW2           1 RES     
   10267 OW          32.4390    34.0940    73.4180 OW            1 RES     
   10268 HW1         31.7610    34.6630    73.8830 HW1           1 RES     
   10269 HW2         32.8360    33.4480    74.0700 HW2           1 RES     
   10270 OW          19.3130    40.6690    77.2810 OW            1 RES     
   10271 HW1         18.3260    40.8280    77.2860 HW1           1 RES     
   10272 HW2         19.7920    41.5460    77.2520 HW2           1 RES     
   10273 OW          37.5370    15.1690    78.5120 OW            1 RES     
   10274 HW1         37.5100    16.1220    78.8120 HW1           1 RES     
   10275 HW2         38.3980    14.7510    78.8050 HW2           1 RES     
   10276 OW          31.6750    31.4220    76.1940 OW            1 RES     
   10277 HW1         30.8970    30.8620    76.4780 HW1           1 RES     
   10278 HW2         32.5020    30.8600    76.1790 HW2           1 RES     
   10279 OW          38.4010    12.5280    73.7620 OW            1 RES     
   10280 HW1         37.6190    13.0260    74.1370 HW1           1 RES     
   10281 HW2         39.0210    13.1710    73.3110 HW2           1 RES     
   10282 OW           2.5040     9.2640    73.6930 OW            1 RES     
   10283 HW1          3.2310     9.7680    73.2270 HW1           1 RES     
   10284 HW2          2.5710     9.4190    74.6790 HW2           1 RES     
   10285 OW          20.4080    51.1610    71.5520 OW            1 RES     
   10286 HW1         21.2880    51.0700    71.0870 HW1           1 RES     
   10287 HW2         19.9790    52.0250    71.2890 HW2           1 RES     
   10288 OW          13.7740    48.7330    75.6400 OW            1 RES     
   10289 HW1         14.1490    47.8140    75.7500 HW1           1 RES     
   10290 HW2         14.5230    49.3880    75.5260 HW2           1 RES     
   10291 OW          40.3770    33.1430    70.7320 OW            1 RES     
   10292 HW1         40.4100    32.9490    69.7520 HW1           1 RES     
   10293 HW2         41.0640    33.8330    70.9590 HW2           1 RES     
   10294 OW          44.6020    22.7930    75.3350 OW            1 RES     
   10295 HW1         45.3720    23.4270    75.2780 HW1           1 RES     
   10296 HW2         43.7480    23.2910    75.1810 HW2           1 RES     
   10297 OW           7.4500    43.0530    78.3270 OW            1 RES     
   10298 HW1          7.4370    43.9310    78.8050 HW1           1 RES     
   10299 HW2          8.3560    42.6380    78.4150 HW2           1 RES     
   10300 OW          50.2170    22.5480    72.3570 OW            1 RES     
   10301 HW1         49.3260    22.1280    72.1920 HW1           1 RES     
   10302 HW2         50.6040    22.1900    73.2070 HW2           1 RES     
   10303 OW          52.1720     3.4920    77.3320 OW            1 RES     
   10304 HW1         51.3010     3.0600    77.0980 HW1           1 RES     
   10305 HW2         52.9050     2.8130    77.2860 HW2           1 RES     
   10306 OW          38.3000    41.0430    71.7060 OW            1 RES     
   10307 HW1         38.8990    41.8420    71.7580 HW1           1 RES     
   10308 HW2         38.8440    40.2110    71.8170 HW2           1 RES     
   10309 OW          44.2210    22.4660    67.7430 OW            1 RES     
   10310 HW1         44.3770    21.5090    67.5000 HW1           1 RES     
   10311 HW2         43.8120    22.5170    68.6540 HW2           1 RES     
   10312 OW          23.9800    50.8170    70.3360 OW            1 RES     
   10313 HW1         24.8750    50.3770    70.4090 HW1           1 RES     
   10314 HW2         23.2670    50.1180    70.2860 HW2           1 RES     
   10315 OW          32.3570    49.5570    78.8120 OW            1 RES     
   10316 HW1         32.9870    50.2970    78.5790 HW1           1 RES     
   10317 HW2         32.3060    48.9100    78.0510 HW2           1 RES     
   10318 OW          33.0010    23.0910    77.6430 OW            1 RES     
   10319 HW1         32.0530    23.2810    77.3870 HW1           1 RES     
   10320 HW2         33.6060    23.7460    77.1910 HW2           1 RES     
   10321 OW          41.7950    52.4190    72.8200 OW            1 RES     
   10322 HW1         41.3560    52.0050    72.0240 HW1           1 RES     
   10323 HW2         42.5830    51.8660    73.0930 HW2           1 RES     
   10324 OW          24.3220    21.4650    71.2990 OW            1 RES     
   10325 HW1         23.6130    22.1220    71.5500 HW1           1 RES     
   10326 HW2         25.2040    21.7730    71.6560 HW2           1 RES     
   10327 OW          15.2550    32.2750    68.1900 OW            1 RES     
   10328 HW1         16.1890    32.1400    68.5200 HW1           1 RES     
   10329 HW2         14.6820    31.5110    68.4860 HW2           1 RES     
   10330 OW          52.1190    22.6130    75.5690 OW            1 RES     
   10331 HW1         51.5810    21.8810    75.1540 HW1           1 RES     
   10332 HW2         51.5430    23.1370    76.1960 HW2           1 RES     
   10333 OW          20.5920    14.8520    69.2280 OW            1 RES     
   10334 HW1         21.3360    14.2040    69.0690 HW1           1 RES     
   10335 HW2         20.9680    15.7250    69.5380 HW2           1 RES     
   10336 OW          23.5160    54.6490    77.7780 OW            1 RES     
   10337 HW1         23.7630    54.3220    78.6900 HW1           1 RES     
   10338 HW2         22.5260    54.7840    77.7280 HW2           1 RES     
   10339 OW          35.0620    24.0660    78.8110 OW            1 RES     
   10340 HW1         36.0370    24.2850    78.8100 HW1           1 RES     
   10341 HW2         34.5290    24.9130    78.8120 HW2           1 RES     
   10342 OW          22.6900    24.9790    67.5460 OW            1 RES     
   10343 HW1         22.5210    24.9970    68.5310 HW1           1 RES     
   10344 HW2         22.1890    25.7260    67.1070 HW2           1 RES     
   10345 OW          40.2140    46.8860    72.0110 OW            1 RES     
   10346 HW1         40.8730    46.5630    72.6890 HW1           1 RES     
   10347 HW2         39.4430    46.2500    71.9650 HW2           1 RES     
   10348 OW          24.2040    17.1200    67.7100 OW            1 RES     
   10349 HW1         23.4690    17.5280    67.1700 HW1           1 RES     
   10350 HW2         24.4610    16.2390    67.3130 HW2           1 RES     
   10351 OW          51.8600    46.6420    67.7860 OW            1 RES     
   10352 HW1         50.9390    47.0300    67.7800 HW1           1 RES     
   10353 HW2         52.5140    47.3310    67.4720 HW2           1 RES     
   10354 OW          49.3100    16.6180    77.2870 OW            1 RES     
   10355 HW1         48.4200    16.9020    76.9310 HW1           1 RES     
   10356 HW2         49.2040    15.7740    77.8140 HW2           1 RES     
   10357 OW           9.0300     4.2860    73.3100 OW            1 RES     
   10358 HW1          9.8130     3.6660    73.3470 HW1           1 RES     
   10359 HW2          9.1240     4.9850    74.0190 HW2           1 RES     
   10360 OW          19.4640    46.4350    73.5610 OW            1 RES     
   10361 HW1         18.6380    46.7260    73.0800 HW1           1 RES     
   10362 HW2         19.3520    45.4920    73.8770 HW2           1 RES     
   10363 OW          32.7460     9.9830    70.9610 OW            1 RES     
   10364 HW1         33.3050    10.2150    70.1660 HW1           1 RES     
   10365 HW2         32.9980    10.5710    71.7300 HW2           1 RES     
   10366 OW          29.8520    15.1950    70.6600 OW            1 RES     
   10367 HW1         30.5220    14.4550    70.6250 HW1           1 RES     
   10368 HW2         29.1370    15.0300    69.9800 HW2           1 RES     
   10369 OW          19.7520     9.3480    76.5830 OW            1 RES     
   10370 HW1         19.8360     9.8450    77.4460 HW1           1 RES     
   10371 HW2         20.6080     9.4240    76.0700 HW2           1 RES     
   10372 OW          40.1210    36.5280    69.4860 OW            1 RES     
   10373 HW1         40.7280    36.1340    70.1760 HW1           1 RES     
   10374 HW2         39.1720    36.4470    69.7920 HW2           1 RES     
   10375 OW          50.4470    33.1710    68.6450 OW            1 RES     
   10376 HW1         51.0170    33.0910    69.4620 HW1           1 RES     
   10377 HW2         49.8330    32.3830    68.5870 HW2           1 RES     
   10378 OW          36.1160    45.7370    75.2810 OW            1 RES     
   10379 HW1         36.9180    46.3220    75.1680 HW1           1 RES     
   10380 HW2         36.4090    44.7920    75.4280 HW2           1 RES     
   10381 OW          15.3490    10.1550    75.0440 OW            1 RES     
   10382 HW1         14.8440    10.9020    75.4750 HW1           1 RES     
   10383 HW2         16.2700    10.4660    74.8090 HW2           1 RES     
   10384 OW          25.7160    44.1370    71.5400 OW            1 RES     
   10385 HW1         25.1540    44.2330    70.7190 HW1           1 RES     
   10386 HW2         26.1560    45.0100    71.7480 HW2           1 RES     
   10387 OW          28.9540    53.9360    73.8180 OW            1 RES     
   10388 HW1         28.8400    52.9490    73.7060 HW1           1 RES     
   10389 HW2         29.3920    54.1230    74.6970 HW2           1 RES     
   10390 OW          19.8140    18.5690    70.7170 OW            1 RES     
   10391 HW1         19.1530    19.2100    70.3290 HW1           1 RES     
   10392 HW2         19.4430    17.6410    70.6750 HW2           1 RES     
   10393 OW          19.4050    49.2540    69.4080 OW            1 RES     
   10394 HW1         20.3550    49.0960    69.6730 HW1           1 RES     
   10395 HW2         18.8830    48.4080    69.5170 HW2           1 RES     
   10396 OW          44.6690    13.2260    67.1160 OW            1 RES     
   10397 HW1         43.7640    13.5130    67.4280 HW1           1 RES     
   10398 HW2         44.8460    12.2900    67.4210 HW2           1 RES     
   10399 OW          54.7820    39.3820    77.5470 OW            1 RES     
   10400 HW1         54.6650    38.6800    76.8450 HW1           1 RES     
   10401 HW2         54.4570    39.0330    78.4260 HW2           1 RES     
   10402 OW          37.0250    20.4150    69.8410 OW            1 RES     
   10403 HW1         36.0850    20.0780    69.8330 HW1           1 RES     
   10404 HW2         37.6580    19.6410    69.8370 HW2           1 RES     
   10405 OW          36.3760    54.7770    73.5410 OW            1 RES     
   10406 HW1         35.9490    54.7630    74.4450 HW1           1 RES     
   10407 HW2         35.7910    54.2940    72.8890 HW2           1 RES     
   10408 OW          44.4470    38.5430    67.5070 OW            1 RES     
   10409 HW1         43.9750    38.2830    68.3480 HW1           1 RES     
   10410 HW2         44.8950    37.7400    67.1130 HW2           1 RES     
   10411 OW          45.4750    13.8600    74.2480 OW            1 RES     
   10412 HW1         46.0800    14.3200    73.5990 HW1           1 RES     
   10413 HW2         45.7390    14.1030    75.1820 HW2           1 RES     
   10414 OW          32.4950    14.6110    71.8680 OW            1 RES     
   10415 HW1         32.8850    13.6940    71.7950 HW1           1 RES     
   10416 HW2         33.2320    15.2840    71.9220 HW2           1 RES     
   10417 OW          28.6930    39.1920    72.6100 OW            1 RES     
   10418 HW1         29.3750    38.6270    73.0730 HW1           1 RES     
   10419 HW2         28.1470    38.6220    71.9960 HW2           1 RES     
   10420 OW          17.2120     3.9920    72.6970 OW            1 RES     
   10421 HW1         17.1770     4.0540    73.6940 HW1           1 RES     
   10422 HW2         17.7210     3.1730    72.4310 HW2           1 RES     
   10423 OW          16.3980     7.1840    77.2140 OW            1 RES     
   10424 HW1         16.6900     6.4430    77.8180 HW1           1 RES     
   10425 HW2         15.4240     7.3620    77.3510 HW2           1 RES     
   10426 OW          18.0970     9.4510    71.5620 OW            1 RES     
   10427 HW1         18.2350     8.4780    71.7450 HW1           1 RES     
   10428 HW2         17.1290     9.6200    71.3730 HW2           1 RES     
   10429 OW           9.9320    18.9150    75.3920 OW            1 RES     
   10430 HW1         10.3960    18.8590    76.2750 HW1           1 RES     
   10431 HW2          9.6280    18.0030    75.1150 HW2           1 RES     
   10432 OW          50.9120    13.2970    71.1710 OW            1 RES     
   10433 HW1         51.2600    14.2320    71.1130 HW1           1 RES     
   10434 HW2         49.9220    13.3170    71.3140 HW2           1 RES     
   10435 OW          10.4500    35.0010    72.7200 OW            1 RES     
   10436 HW1         10.1100    34.4530    73.4830 HW1           1 RES     
   10437 HW2         10.3260    34.4970    71.8650 HW2           1 RES     
   10438 OW          39.0120    10.7080    76.8190 OW            1 RES     
   10439 HW1         38.3550     9.9730    76.9820 HW1           1 RES     
   10440 HW2         38.6230    11.3670    76.1760 HW2           1 RES     
   10441 OW          26.1630    31.2230    75.5360 OW            1 RES     
   10442 HW1         27.1000    31.5610    75.6180 HW1           1 RES     
   10443 HW2         26.1770    30.2590    75.2700 HW2           1 RES     
   10444 OW          16.5390    27.3540    72.8450 OW            1 RES     
   10445 HW1         15.5540    27.5000    72.9380 HW1           1 RES     
   10446 HW2         17.0060    28.2380    72.8080 HW2           1 RES     
   10447 OW          26.2090    21.1690    67.3330 OW            1 RES     
   10448 HW1         27.0960    20.7680    67.1080 HW1           1 RES     
   10449 HW2         25.4890    20.4920    67.1830 HW2           1 RES     
   10450 OW          32.8670    12.0720    76.3450 OW            1 RES     
   10451 HW1         33.8600    12.1220    76.2410 HW1           1 RES     
   10452 HW2         32.5200    12.9540    76.6650 HW2           1 RES     
   10453 OW          20.8650     9.0400    70.7290 OW            1 RES     
   10454 HW1         20.4660     8.8790    71.6310 HW1           1 RES     
   10455 HW2         20.2300     8.7280    70.0230 HW2           1 RES     
   10456 OW          31.4480    45.6200    74.4960 OW            1 RES     
   10457 HW1         32.0800    44.8690    74.6820 HW1           1 RES     
   10458 HW2         30.5220    45.2590    74.3890 HW2           1 RES     
   10459 OW          41.7350    51.5110    78.5120 OW            1 RES     
   10460 HW1         41.9790    52.0500    77.7070 HW1           1 RES     
   10461 HW2         42.3610    50.7360    78.5980 HW2           1 RES     
   10462 OW           7.7450    37.4220    70.6660 OW            1 RES     
   10463 HW1          7.9360    38.2660    70.1660 HW1           1 RES     
   10464 HW2          6.8060    37.4430    71.0090 HW2           1 RES     
   10465 OW          27.6650    17.3440    77.1790 OW            1 RES     
   10466 HW1         26.6990    17.5810    77.2760 HW1           1 RES     
   10467 HW2         28.2280    18.1350    77.4180 HW2           1 RES     
   10468 OW          28.5190    10.9220    67.4950 OW            1 RES     
   10469 HW1         28.1180    10.0920    67.1080 HW1           1 RES     
   10470 HW2         29.4310    11.0630    67.1090 HW2           1 RES     
   10471 OW          46.7300    21.1770    74.7370 OW            1 RES     
   10472 HW1         46.3290    21.4570    75.6090 HW1           1 RES     
   10473 HW2         46.5710    21.8880    74.0520 HW2           1 RES     
   10474 OW          27.3030    44.4390    74.5460 OW            1 RES     
   10475 HW1         26.6460    43.9470    73.9770 HW1           1 RES     
   10476 HW2         27.8680    43.7830    75.0470 HW2           1 RES     
   10477 OW          46.2130    40.9850    72.1620 OW            1 RES     
   10478 HW1         46.3790    41.9460    71.9450 HW1           1 RES     
   10479 HW2         45.2810    40.8770    72.5090 HW2           1 RES     
   10480 OW          33.6970    27.2840    72.6720 OW            1 RES     
   10481 HW1         34.1410    28.1740    72.5830 HW1           1 RES     
   10482 HW2         32.7070    27.3940    72.5830 HW2           1 RES     
   10483 OW          20.2720    20.6370    71.5750 OW            1 RES     
   10484 HW1         20.2760    20.7130    72.5710 HW1           1 RES     
   10485 HW2         20.6650    21.4650    71.1750 HW2           1 RES     
   10486 OW          27.4950    24.8680    78.6640 OW            1 RES     
   10487 HW1         27.5460    24.5240    77.7270 HW1           1 RES     
   10488 HW2         26.6060    25.3020    78.8120 HW2           1 RES     
   10489 OW          10.1680    13.0190    72.4710 OW            1 RES     
   10490 HW1          9.5470    13.4400    71.8110 HW1           1 RES     
   10491 HW2         11.1070    13.0760    72.1290 HW2           1 RES     
   10492 OW          39.6270     4.5480    78.6410 OW            1 RES     
   10493 HW1         39.4120     3.5780    78.5300 HW1           1 RES     
   10494 HW2         38.7800     5.0800    78.6410 HW2           1 RES     
   10495 OW          40.1430    12.7740    70.8910 OW            1 RES     
   10496 HW1         39.1840    13.0570    70.8670 HW1           1 RES     
   10497 HW2         40.2750    11.9910    70.2820 HW2           1 RES     
   10498 OW          54.7860    42.9450    76.4100 OW            1 RES     
   10499 HW1         54.3310    42.9970    75.5220 HW1           1 RES     
   10500 HW2         54.3170    43.5440    77.0610 HW2           1 RES     
   10501 OW          31.5570    17.6810    67.7160 OW            1 RES     
   10502 HW1         32.2950    17.2650    67.1860 HW1           1 RES     
   10503 HW2         30.9660    18.2110    67.1070 HW2           1 RES     
   10504 OW          30.1240    10.0830    69.7750 OW            1 RES     
   10505 HW1         29.6540    10.6210    70.4740 HW1           1 RES     
   10506 HW2         30.4250    10.6870    69.0360 HW2           1 RES     
   10507 OW          30.8970    52.6120    68.1580 OW            1 RES     
   10508 HW1         31.2800    53.5180    68.3340 HW1           1 RES     
   10509 HW2         30.7700    52.1290    69.0250 HW2           1 RES     
   10510 OW          30.0600    47.9550    76.1420 OW            1 RES     
   10511 HW1         29.1480    47.5990    75.9420 HW1           1 RES     
   10512 HW2         30.2000    47.9780    77.1320 HW2           1 RES     
   10513 OW          29.6950    25.1110    71.7970 OW            1 RES     
   10514 HW1         28.9120    25.0340    72.4130 HW1           1 RES     
   10515 HW2         30.4410    24.5340    72.1310 HW2           1 RES     
   10516 OW          12.4140    11.1340    69.4940 OW            1 RES     
   10517 HW1         12.8110    10.9610    68.5930 HW1           1 RES     
   10518 HW2         11.4920    11.5070    69.3870 HW2           1 RES     
   10519 OW          14.9780    37.8500    75.2690 OW            1 RES     
   10520 HW1         15.4180    37.2880    74.5700 HW1           1 RES     
   10521 HW2         14.9960    38.8100    74.9870 HW2           1 RES     
   10522 OW          11.5150    50.7150    70.0490 OW            1 RES     
   10523 HW1         12.2790    50.2900    69.5650 HW1           1 RES     
   10524 HW2         11.3800    50.2570    70.9280 HW2           1 RES     
   10525 OW          34.4930    51.2550    75.8180 OW            1 RES     
   10526 HW1         34.5410    50.2580    75.7710 HW1           1 RES     
   10527 HW2         33.5360    51.5450    75.7840 HW2           1 RES     
   10528 OW          53.7950    18.1300    76.5510 OW            1 RES     
   10529 HW1         53.4110    19.0530    76.5600 HW1           1 RES     
   10530 HW2         54.7860    18.1820    76.4270 HW2           1 RES     
   10531 OW          22.0210    12.9200    71.9070 OW            1 RES     
   10532 HW1         22.0180    12.8170    72.9010 HW1           1 RES     
   10533 HW2         21.3910    13.6510    71.6450 HW2           1 RES     
   10534 OW          50.9380    38.1810    72.0570 OW            1 RES     
   10535 HW1         50.1150    38.0230    72.6020 HW1           1 RES     
   10536 HW2         51.5600    37.4040    72.1600 HW2           1 RES     
   10537 OW          28.6650    14.1450    76.8250 OW            1 RES     
   10538 HW1         27.8690    13.9100    77.3810 HW1           1 RES     
   10539 HW2         28.7820    15.1380    76.8120 HW2           1 RES     
   10540 OW          36.8090    35.6590    67.7760 OW            1 RES     
   10541 HW1         36.0920    35.4270    67.1200 HW1           1 RES     
   10542 HW2         37.5950    35.0550    67.6390 HW2           1 RES     
   10543 OW           8.0200    27.6500    74.7950 OW            1 RES     
   10544 HW1          7.1130    27.6630    75.2160 HW1           1 RES     
   10545 HW2          8.0900    28.3940    74.1300 HW2           1 RES     
   10546 OW           8.7250     8.5620    69.3020 OW            1 RES     
   10547 HW1          8.0550     8.1860    69.9400 HW1           1 RES     
   10548 HW2          9.0420     7.8410    68.6860 HW2           1 RES     
   10549 OW          10.6920    11.1560    74.8940 OW            1 RES     
   10550 HW1         10.8780    12.0110    74.4120 HW1           1 RES     
   10551 HW2         10.2930    11.3570    75.7890 HW2           1 RES     
   10552 OW           9.2360    15.2210    73.7900 OW            1 RES     
   10553 HW1          9.7870    15.4810    72.9980 HW1           1 RES     
   10554 HW2          9.3390    15.9080    74.5090 HW2           1 RES     
   10555 OW          30.2440    17.0970    71.9160 OW            1 RES     
   10556 HW1         31.2090    16.9540    71.6990 HW1           1 RES     
   10557 HW2         30.1020    18.0450    72.2010 HW2           1 RES     
   10558 OW          17.2280     6.1940    72.8680 OW            1 RES     
   10559 HW1         16.7260     7.0560    72.8040 HW1           1 RES     
   10560 HW2         17.7680     6.1840    73.7090 HW2           1 RES     
   10561 OW          23.1620    42.0390    73.3870 OW            1 RES     
   10562 HW1         22.5840    42.2880    74.1630 HW1           1 RES     
   10563 HW2         22.6950    41.3520    72.8290 HW2           1 RES     
   10564 OW          52.3640     2.5000    68.5580 OW            1 RES     
   10565 HW1         51.4420     2.8170    68.3360 HW1           1 RES     
   10566 HW2         53.0190     2.9060    67.9200 HW2           1 RES     
   10567 OW          31.5970     3.0610    74.0680 OW            1 RES     
   10568 HW1         31.0870     2.5000    74.7190 HW1           1 RES     
   10569 HW2         31.8690     2.5000    73.2860 HW2           1 RES     
   10570 OW          27.1810     6.5960    76.1450 OW            1 RES     
   10571 HW1         26.7460     6.7480    77.0320 HW1           1 RES     
   10572 HW2         28.1700     6.5120    76.2690 HW2           1 RES     
   10573 OW          45.9310    53.9460    73.8460 OW            1 RES     
   10574 HW1         45.0300    54.1670    73.4750 HW1           1 RES     
   10575 HW2         46.1200    54.5330    74.6330 HW2           1 RES     
   10576 OW           8.0340    23.6850    77.5310 OW            1 RES     
   10577 HW1          8.5650    23.5150    76.7020 HW1           1 RES     
   10578 HW2          7.1450    24.0730    77.2850 HW2           1 RES     
   10579 OW          28.9010    49.7920    74.3360 OW            1 RES     
   10580 HW1         28.6570    48.9500    73.8570 HW1           1 RES     
   10581 HW2         28.6000    50.5810    73.7990 HW2           1 RES     
   10582 OW          22.6480    10.7990    68.0190 OW            1 RES     
   10583 HW1         23.1820    11.6070    67.7690 HW1           1 RES     
   10584 HW2         23.1410     9.9740    67.7420 HW2           1 RES     
   10585 OW          51.8610    24.9300    73.7790 OW            1 RES     
   10586 HW1         52.7450    24.7390    74.2040 HW1           1 RES     
   10587 HW2         51.1760    24.2910    74.1300 HW2           1 RES     
   10588 OW          29.2850    12.8120    69.7010 OW            1 RES     
   10589 HW1         29.3110    12.5600    68.7340 HW1           1 RES     
   10590 HW2         28.3350    12.8420    70.0130 HW2           1 RES     
   10591 OW          44.3890    48.1420    77.5770 OW            1 RES     
   10592 HW1         43.7930    48.6620    78.1880 HW1           1 RES     
   10593 HW2         45.1090    48.7400    77.2240 HW2           1 RES     
   10594 OW           2.7100    41.0660    77.0730 OW            1 RES     
   10595 HW1          2.5020    41.9720    77.4420 HW1           1 RES     
   10596 HW2          2.5000    40.3700    77.7600 HW2           1 RES     
   10597 OW          43.1820     3.5910    76.1950 OW            1 RES     
   10598 HW1         44.1610     3.7910    76.2040 HW1           1 RES     
   10599 HW2         43.0430     2.6030    76.2710 HW2           1 RES     
   10600 OW           9.3390    29.0390    75.8780 OW            1 RES     
   10601 HW1          8.5740    29.1880    76.5030 HW1           1 RES     
   10602 HW2          9.3880    29.7940    75.2230 HW2           1 RES     
   10603 OW          40.6890    42.5040    74.2710 OW            1 RES     
   10604 HW1         39.7990    42.0520    74.2220 HW1           1 RES     
   10605 HW2         40.9560    42.6100    75.2290 HW2           1 RES     
   10606 OW          13.7560    22.4290    74.0640 OW            1 RES     
   10607 HW1         14.4340    23.1370    73.8650 HW1           1 RES     
   10608 HW2         12.8750    22.8580    74.2620 HW2           1 RES     
   10609 OW          41.2120    46.3800    76.2780 OW            1 RES     
   10610 HW1         41.6940    46.8770    76.9990 HW1           1 RES     
   10611 HW2         40.5340    46.9810    75.8540 HW2           1 RES     
   10612 OW          37.8850    34.4170    70.5220 OW            1 RES     
   10613 HW1         38.6790    34.2950    69.9280 HW1           1 RES     
   10614 HW2         37.1560    33.7930    70.2370 HW2           1 RES     
   10615 OW          22.6310    50.3330    76.6480 OW            1 RES     
   10616 HW1         23.3980    49.7100    76.8010 HW1           1 RES     
   10617 HW2         21.9370    49.8770    76.0900 HW2           1 RES     
   10618 OW          17.2130    44.2100    76.0910 OW            1 RES     
   10619 HW1         16.9160    43.6160    76.8370 HW1           1 RES     
   10620 HW2         16.4270    44.7130    75.7310 HW2           1 RES     
   10621 OW          23.8410     5.6130    72.2620 OW            1 RES     
   10622 HW1         24.1180     5.8740    71.3380 HW1           1 RES     
   10623 HW2         22.8770     5.3440    72.2580 HW2           1 RES     
   10624 OW          51.7780    29.0260    78.8000 OW            1 RES     
   10625 HW1         52.6530    28.5440    78.8100 HW1           1 RES     
   10626 HW2         51.0320    28.3630    78.7410 HW2           1 RES     
   10627 OW          54.7830     7.5100    74.1150 OW            1 RES     
   10628 HW1         54.7840     7.9580    73.2220 HW1           1 RES     
   10629 HW2         54.7400     8.2020    74.8360 HW2           1 RES     
   10630 OW          38.0420    29.9140    74.4160 OW            1 RES     
   10631 HW1         38.2940    30.8750    74.5320 HW1           1 RES     
   10632 HW2         37.0590    29.8060    74.5680 HW2           1 RES     
   10633 OW          28.7020     5.4900    78.1440 OW            1 RES     
   10634 HW1         28.6100     6.2420    78.7950 HW1           1 RES     
   10635 HW2         29.6020     5.0660    78.2480 HW2           1 RES     
   10636 OW          43.7940    38.4910    74.2030 OW            1 RES     
   10637 HW1         43.1140    39.1190    74.5790 HW1           1 RES     
   10638 HW2         44.6080    39.0040    73.9320 HW2           1 RES     
   10639 OW          30.7980    48.5430    74.1550 OW            1 RES     
   10640 HW1         31.0330    49.4780    73.8920 HW1           1 RES     
   10641 HW2         31.6360    48.0100    74.2800 HW2           1 RES     
   10642 OW           9.8450    30.0330    70.9640 OW            1 RES     
   10643 HW1          9.5600    30.9230    71.3180 HW1           1 RES     
   10644 HW2          9.3970    29.3060    71.4860 HW2           1 RES     
   10645 OW          45.8440    16.8340    78.6910 OW            1 RES     
   10646 HW1         46.6550    16.2630    78.8120 HW1           1 RES     
   10647 HW2         46.1230    17.7630    78.4440 HW2           1 RES     
   10648 OW          27.9260    20.1540    76.2700 OW            1 RES     
   10649 HW1         28.2690    21.0220    75.9150 HW1           1 RES     
   10650 HW2         27.6300    20.2740    77.2180 HW2           1 RES     
   10651 OW          33.4850    53.9310    74.7470 OW            1 RES     
   10652 HW1         33.7750    54.6450    74.1110 HW1           1 RES     
   10653 HW2         34.2890    53.5210    75.1790 HW2           1 RES     
   10654 OW          46.1190    15.3080    69.8810 OW            1 RES     
   10655 HW1         45.3780    15.8220    70.3130 HW1           1 RES     
   10656 HW2         46.7610    14.9960    70.5810 HW2           1 RES     
   10657 OW          43.9170    34.0590    71.8660 OW            1 RES     
   10658 HW1         43.0200    34.4790    71.7330 HW1           1 RES     
   10659 HW2         43.8130    33.0680    71.9550 HW2           1 RES     
   10660 OW          11.4080    18.3270    72.9000 OW            1 RES     
   10661 HW1         10.6040    18.7670    73.2970 HW1           1 RES     
   10662 HW2         11.4100    18.4670    71.9090 HW2           1 RES     
   10663 OW          50.9140    39.7430    76.5570 OW            1 RES     
   10664 HW1         50.4260    38.8710    76.5590 HW1           1 RES     
   10665 HW2         51.8920    39.5790    76.6820 HW2           1 RES     
   10666 OW          40.1540    54.2280    69.7890 OW            1 RES     
   10667 HW1         39.8750    54.7850    69.0070 HW1           1 RES     
   10668 HW2         40.6930    54.7860    70.4200 HW2           1 RES     
   10669 OW          49.0990    10.0140    73.7830 OW            1 RES     
   10670 HW1         49.8990    10.4720    73.3970 HW1           1 RES     
   10671 HW2         49.3800     9.1510    74.2030 HW2           1 RES     
   10672 OW          38.5100    47.4260    67.1070 OW            1 RES     
   10673 HW1         38.8330    48.3720    67.1070 HW1           1 RES     
   10674 HW2         37.5090    47.4160    67.1080 HW2           1 RES     
   10675 OW          25.6270    12.3210    68.7130 OW            1 RES     
   10676 HW1         25.4280    11.3830    68.9940 HW1           1 RES     
   10677 HW2         26.6180    12.4600    68.6920 HW2           1 RES     
   10678 OW          21.6500    32.3980    70.7210 OW            1 RES     
   10679 HW1         22.3390    32.9130    70.2130 HW1           1 RES     
   10680 HW2         21.7150    31.4290    70.4830 HW2           1 RES     
   10681 OW          19.5340    34.1230    69.1120 OW            1 RES     
   10682 HW1         20.5040    34.2980    69.2830 HW1           1 RES     
   10683 HW2         19.0140    34.9650    69.2510 HW2           1 RES     
   10684 OW          41.1460    49.4100    72.0370 OW            1 RES     
   10685 HW1         41.5590    49.9460    72.7720 HW1           1 RES     
   10686 HW2         40.2570    49.0620    72.3350 HW2           1 RES     
   10687 OW          24.0180    27.8550    77.0780 OW            1 RES     
   10688 HW1         23.3900    27.9040    77.8540 HW1           1 RES     
   10689 HW2         23.7560    28.5330    76.3920 HW2           1 RES     
   10690 OW          54.1140    13.0140    68.0630 OW            1 RES     
   10691 HW1         53.9350    13.6630    67.3250 HW1           1 RES     
   10692 HW2         54.7860    13.4030    68.6940 HW2           1 RES     
   10693 OW          14.5140     3.9770    71.0530 OW            1 RES     
   10694 HW1         13.5780     4.3240    71.0100 HW1           1 RES     
   10695 HW2         14.5060     2.9810    70.9640 HW2           1 RES     
   10696 OW          12.1890    20.9370    72.0060 OW            1 RES     
   10697 HW1         12.3180    20.3460    71.2110 HW1           1 RES     
   10698 HW2         13.0720    21.3120    72.2910 HW2           1 RES     
   10699 OW           3.9900     9.9120    76.5530 OW            1 RES     
   10700 HW1          3.2210    10.5430    76.4550 HW1           1 RES     
   10701 HW2          3.6540     8.9710    76.5410 HW2           1 RES     
   10702 OW          11.3290    54.7850    71.1610 OW            1 RES     
   10703 HW1         11.3460    53.8940    70.7080 HW1           1 RES     
   10704 HW2         10.7950    54.7220    72.0040 HW2           1 RES     
   10705 OW          48.5060    27.5080    76.1290 OW            1 RES     
   10706 HW1         48.1740    26.5690    76.2170 HW1           1 RES     
   10707 HW2         49.4840    27.5370    76.3340 HW2           1 RES     
   10708 OW          28.4230    35.9500    67.2380 OW            1 RES     
   10709 HW1         29.1190    36.3750    67.8170 HW1           1 RES     
   10710 HW2         27.5310    36.0160    67.6860 HW2           1 RES     
   10711 OW          11.6250    54.0590    74.7250 OW            1 RES     
   10712 HW1         12.5640    53.8120    74.9600 HW1           1 RES     
   10713 HW2         11.6330    54.7860    74.0380 HW2           1 RES     
   10714 OW          12.5900     8.7410    71.1110 OW            1 RES     
   10715 HW1         12.7840     7.8080    70.8080 HW1           1 RES     
   10716 HW2         11.6000     8.8820    71.1420 HW2           1 RES     
   10717 OW           4.7020    51.8950    71.8520 OW            1 RES     
   10718 HW1          4.2970    52.8060    71.9270 HW1           1 RES     
   10719 HW2          5.5750    51.8770    72.3400 HW2           1 RES     
   10720 OW          26.2300    43.6450    77.0260 OW            1 RES     
   10721 HW1         27.0270    43.1560    77.3790 HW1           1 RES     
   10722 HW2         26.0050    43.3010    76.1140 HW2           1 RES     
   10723 OW           6.0470    39.3870    70.3140 OW            1 RES     
   10724 HW1          5.7330    39.5410    71.2500 HW1           1 RES     
   10725 HW2          5.5920    40.0310    69.6990 HW2           1 RES     
   10726 OW          44.9300    22.0720    72.4070 OW            1 RES     
   10727 HW1         44.4300    21.5810    73.1200 HW1           1 RES     
   10728 HW2         44.3050    22.6830    71.9210 HW2           1 RES     
   10729 OW          20.0450     6.7260    78.5790 OW            1 RES     
   10730 HW1         19.2070     7.0920    78.1760 HW1           1 RES     
   10731 HW2         20.2640     5.8470    78.1550 HW2           1 RES     
   10732 OW          22.6640    31.9020    72.7400 OW            1 RES     
   10733 HW1         22.0070    32.6420    72.8840 HW1           1 RES     
   10734 HW2         23.3370    31.9040    73.4800 HW2           1 RES     
   10735 OW          48.8720    31.4840    75.7180 OW            1 RES     
   10736 HW1         49.5880    32.1100    76.0250 HW1           1 RES     
   10737 HW2         48.0460    31.6300    76.2620 HW2           1 RES     
   10738 OW          44.2390    26.3240    67.3970 OW            1 RES     
   10739 HW1         45.1920    26.0310    67.4690 HW1           1 RES     
   10740 HW2         43.6730    25.5520    67.1070 HW2           1 RES     
   10741 OW           8.3270    10.3650    71.4740 OW            1 RES     
   10742 HW1          8.9020     9.5480    71.4570 HW1           1 RES     
   10743 HW2          8.8440    11.1450    71.1220 HW2           1 RES     
   10744 OW          17.3530    30.4540    77.2140 OW            1 RES     
   10745 HW1         18.3450    30.5750    77.1860 HW1           1 RES     
   10746 HW2         17.1340    29.4800    77.1540 HW2           1 RES     
   10747 OW          30.0240     7.9660    67.3470 OW            1 RES     
   10748 HW1         29.1240     7.5960    67.1180 HW1           1 RES     
   10749 HW2         29.9400     8.9400    67.5580 HW2           1 RES     
   10750 OW           7.4590    45.1550    69.9380 OW            1 RES     
   10751 HW1          7.4570    44.1770    69.7360 HW1           1 RES     
   10752 HW2          7.7740    45.3030    70.8760 HW2           1 RES     
   10753 OW          47.1040     3.4990    14.1630 OW            1 RES     
   10754 HW1         47.1510     2.5020    14.1940 HW1           1 RES     
   10755 HW2         46.1480     3.7900    14.2050 HW2           1 RES     
   10756 OW          12.0990    22.1410    10.7810 OW            1 RES     
   10757 HW1         11.7420    21.2270    10.9720 HW1           1 RES     
   10758 HW2         11.4740    22.6220    10.1660 HW2           1 RES     
   10759 OW          26.4150    44.5220    10.4720 OW            1 RES     
   10760 HW1         25.7300    44.5590    11.1990 HW1           1 RES     
   10761 HW2         27.0260    43.7460    10.6280 HW2           1 RES     
   10762 OW          54.7240    22.4440     4.0970 OW            1 RES     
   10763 HW1         54.7810    21.8220     4.8770 HW1           1 RES     
   10764 HW2         54.7810    23.3890     4.4180 HW2           1 RES     
   10765 OW          42.2080    46.2450     2.7180 OW            1 RES     
   10766 HW1         41.8960    46.2860     3.6670 HW1           1 RES     
   10767 HW2         43.1980    46.3850     2.6860 HW2           1 RES     
   10768 OW          43.5200     3.4070    10.8110 OW            1 RES     
   10769 HW1         43.3390     3.1130    11.7490 HW1           1 RES     
   10770 HW2         43.0050     4.2430    10.6170 HW2           1 RES     
   10771 OW          45.4540    50.0470     9.2040 OW            1 RES     
   10772 HW1         45.4530    49.0470     9.1920 HW1           1 RES     
   10773 HW2         44.5130    50.3820     9.1660 HW2           1 RES     
   10774 OW          49.4820    41.6060     5.4430 OW            1 RES     
   10775 HW1         49.7770    42.2790     4.7660 HW1           1 RES     
   10776 HW2         48.5360    41.7910     5.7080 HW2           1 RES     
   10777 OW          52.7300    40.2730     7.0020 OW            1 RES     
   10778 HW1         52.7020    39.8080     6.1170 HW1           1 RES     
   10779 HW2         53.5340    39.9690     7.5130 HW2           1 RES     
   10780 OW          39.9390    53.2190    13.5030 OW            1 RES     
   10781 HW1         40.3130    54.1450    13.5410 HW1           1 RES     
   10782 HW2         40.6810    52.5550    13.5880 HW2           1 RES     
   10783 OW          46.6770     9.5910     5.5420 OW            1 RES     
   10784 HW1         46.5580    10.5590     5.7610 HW1           1 RES     
   10785 HW2         47.3730     9.4930     4.8300 HW2           1 RES     
   10786 OW          38.1240    29.3480     4.7940 OW            1 RES     
   10787 HW1         37.8050    28.4160     4.9610 HW1           1 RES     
   10788 HW2         37.5110    29.9970     5.2450 HW2           1 RES     
   10789 OW          33.4280    42.6210     8.0730 OW            1 RES     
   10790 HW1         32.4730    42.8050     8.3030 HW1           1 RES     
   10791 HW2         33.6650    43.0950     7.2250 HW2           1 RES     
   10792 OW          22.7210    14.0350    12.4120 OW            1 RES     
   10793 HW1         23.3820    14.7740    12.2900 HW1           1 RES     
   10794 HW2         23.2040    13.1600    12.4630 HW2           1 RES     
   10795 OW          44.9290    29.7120    13.7280 OW            1 RES     
   10796 HW1         44.4410    28.9820    14.2050 HW1           1 RES     
   10797 HW2         44.7740    30.5800    14.2000 HW2           1 RES     
   10798 OW           5.9590    47.9680     6.3230 OW            1 RES     
   10799 HW1          5.9630    48.9490     6.5140 HW1           1 RES     
   10800 HW2          6.4050    47.7970     5.4440 HW2           1 RES     
   10801 OW          37.8350     9.3560    13.7400 OW            1 RES     
   10802 HW1         37.5850     8.4390    14.0490 HW1           1 RES     
   10803 HW2         38.6420     9.3020    13.1520 HW2           1 RES     
   10804 OW          22.4460    20.1720     9.2880 OW            1 RES     
   10805 HW1         21.5440    20.5250     9.0390 HW1           1 RES     
   10806 HW2         22.5400    19.2340     8.9550 HW2           1 RES     
   10807 OW          19.1960     7.5780    14.1960 OW            1 RES     
   10808 HW1         19.5440     6.6410    14.1880 HW1           1 RES     
   10809 HW2         19.9630     8.2190    14.2050 HW2           1 RES     
   10810 OW          46.6290    43.7640    11.6580 OW            1 RES     
   10811 HW1         46.1280    42.9920    12.0470 HW1           1 RES     
   10812 HW2         47.6060    43.5510    11.6380 HW2           1 RES     
   10813 OW          54.5290     5.7800     9.7010 OW            1 RES     
   10814 HW1         54.4630     6.6590     9.2290 HW1           1 RES     
   10815 HW2         54.7830     5.9310    10.6560 HW2           1 RES     
   10816 OW          42.0550     4.7400    12.5380 OW            1 RES     
   10817 HW1         41.2140     4.2140    12.4110 HW1           1 RES     
   10818 HW2         41.8300     5.7100    12.6350 HW2           1 RES     
   10819 OW          11.5750    42.9630    13.8800 OW            1 RES     
   10820 HW1         11.3560    42.0060    14.0670 HW1           1 RES     
   10821 HW2         12.5000    43.1630    14.2040 HW2           1 RES     
   10822 OW           7.7870    49.9120    11.1860 OW            1 RES     
   10823 HW1          8.2400    50.1430    12.0460 HW1           1 RES     
   10824 HW2          6.8220    49.7140    11.3590 HW2           1 RES     
   10825 OW          47.9140    45.1040     4.1150 OW            1 RES     
   10826 HW1         48.4400    44.3720     4.5460 HW1           1 RES     
   10827 HW2         47.0470    44.7370     3.7760 HW2           1 RES     
   10828 OW          20.4020     9.7830    11.4500 OW            1 RES     
   10829 HW1         20.7750    10.6950    11.6190 HW1           1 RES     
   10830 HW2         20.3140     9.2930    12.3170 HW2           1 RES     
   10831 OW          35.4670    31.5290     5.7490 OW            1 RES     
   10832 HW1         35.3560    30.6800     5.2340 HW1           1 RES     
   10833 HW2         35.1510    32.3000     5.1950 HW2           1 RES     
   10834 OW          36.6580    13.6370    11.7000 OW            1 RES     
   10835 HW1         35.8310    13.7460    12.2500 HW1           1 RES     
   10836 HW2         36.4710    13.0200    10.9350 HW2           1 RES     
   10837 OW          11.8080    44.6840     8.5320 OW            1 RES     
   10838 HW1         10.9130    44.2810     8.3450 HW1           1 RES     
   10839 HW2         12.5200    43.9950     8.3910 HW2           1 RES     
   10840 OW          44.8480    22.2020     6.3460 OW            1 RES     
   10841 HW1         45.1310    21.5170     5.6750 HW1           1 RES     
   10842 HW2         45.5950    22.8500     6.4970 HW2           1 RES     
   10843 OW          54.1270     6.2790     4.7420 OW            1 RES     
   10844 HW1         53.1470     6.1550     4.5950 HW1           1 RES     
   10845 HW2         54.6350     5.6280     4.1770 HW2           1 RES     
   10846 OW          42.4080    25.7400    10.9920 OW            1 RES     
   10847 HW1         41.8390    26.4780    11.3520 HW1           1 RES     
   10848 HW2         43.2210    26.1280    10.5570 HW2           1 RES     
   10849 OW          22.9930    50.8360     3.1640 OW            1 RES     
   10850 HW1         23.6860    50.1170     3.1630 HW1           1 RES     
   10851 HW2         22.0820    50.4230     3.1740 HW2           1 RES     
   10852 OW           3.3960     4.6630     9.9070 OW            1 RES     
   10853 HW1          3.1940     3.6890    10.0030 HW1           1 RES     
   10854 HW2          4.3620     4.7830     9.6770 HW2           1 RES     
   10855 OW          28.0190    17.2200    12.0020 OW            1 RES     
   10856 HW1         27.5890    17.9810    12.4870 HW1           1 RES     
   10857 HW2         27.4780    16.3900    12.1360 HW2           1 RES     
   10858 OW          41.5450    47.6750     5.7730 OW            1 RES     
   10859 HW1         40.9080    46.9080     5.8540 HW1           1 RES     
   10860 HW2         42.4710    47.3260     5.6290 HW2           1 RES     
   10861 OW          33.6330    29.4280    11.0080 OW            1 RES     
   10862 HW1         34.6290    29.3570    11.0140 HW1           1 RES     
   10863 HW2         33.2330    28.5120    10.9690 HW2           1 RES     
   10864 OW           7.7670    53.6190    13.3010 OW            1 RES     
   10865 HW1          7.4030    53.3930    14.2040 HW1           1 RES     
   10866 HW2          8.7470    53.4200    13.2760 HW2           1 RES     
   10867 OW           5.9820    38.7440     6.4690 OW            1 RES     
   10868 HW1          5.1700    39.1500     6.0520 HW1           1 RES     
   10869 HW2          6.7830    39.3010     6.2510 HW2           1 RES     
   10870 OW          35.9670    16.5060     4.4770 OW            1 RES     
   10871 HW1         36.4930    17.1020     3.8720 HW1           1 RES     
   10872 HW2         36.5910    15.9240     4.9980 HW2           1 RES     
   10873 OW          24.4590    24.4520    12.0210 OW            1 RES     
   10874 HW1         24.7360    23.5820    12.4260 HW1           1 RES     
   10875 HW2         25.0850    24.6880    11.2770 HW2           1 RES     
   10876 OW          27.2160    24.8510    10.1920 OW            1 RES     
   10877 HW1         27.0060    25.3410     9.3470 HW1           1 RES     
   10878 HW2         27.1190    25.4700    10.9710 HW2           1 RES     
   10879 OW          16.2570    27.4170     7.5240 OW            1 RES     
   10880 HW1         16.8320    28.2330     7.4740 HW1           1 RES     
   10881 HW2         16.7630    26.6790     7.9710 HW2           1 RES     
   10882 OW          30.8950    47.4170    10.9730 OW            1 RES     
   10883 HW1         31.0640    46.9040    10.1320 HW1           1 RES     
   10884 HW2         30.8320    46.7840    11.7440 HW2           1 RES     
   10885 OW           7.2440    51.7110     5.1600 OW            1 RES     
   10886 HW1          7.0310    51.2450     4.3010 HW1           1 RES     
   10887 HW2          6.5370    51.5040     5.8370 HW2           1 RES     
   10888 OW          40.3800    28.7540    10.6420 OW            1 RES     
   10889 HW1         39.3920    28.8940    10.6860 HW1           1 RES     
   10890 HW2         40.8320    29.6240    10.4430 HW2           1 RES     
   10891 OW          41.1960    43.1190    11.6280 OW            1 RES     
   10892 HW1         41.0160    42.1740    11.3560 HW1           1 RES     
   10893 HW2         41.1150    43.2010    12.6210 HW2           1 RES     
   10894 OW          24.3930    26.4220     9.1330 OW            1 RES     
   10895 HW1         24.4700    27.3650     9.4540 HW1           1 RES     
   10896 HW2         23.4330    26.1420     9.1460 HW2           1 RES     
   10897 OW          48.4130    30.3250     2.6080 OW            1 RES     
   10898 HW1         49.2610    29.8050     2.7040 HW1           1 RES     
   10899 HW2         47.6430    29.6940     2.5060 HW2           1 RES     
   10900 OW          22.9810    50.9590    11.8090 OW            1 RES     
   10901 HW1         23.9260    50.9250    11.4870 HW1           1 RES     
   10902 HW2         22.8750    50.3500    12.5960 HW2           1 RES     
   10903 OW          19.2980     4.8760     9.2570 OW            1 RES     
   10904 HW1         18.5720     4.8360     9.9420 HW1           1 RES     
   10905 HW2         20.1250     4.4470     9.6210 HW2           1 RES     
   10906 OW          30.8510    15.2150     8.5030 OW            1 RES     
   10907 HW1         30.3940    14.6790     7.7940 HW1           1 RES     
   10908 HW2         30.3020    15.2000     9.3390 HW2           1 RES     
   10909 OW          12.8670    39.1540     7.8390 OW            1 RES     
   10910 HW1         12.3140    38.8970     7.0470 HW1           1 RES     
   10911 HW2         12.6740    38.5320     8.5980 HW2           1 RES     
   10912 OW          19.2420    45.6990     3.4040 OW            1 RES     
   10913 HW1         19.3960    46.1000     2.5020 HW1           1 RES     
   10914 HW2         18.3370    45.2750     3.4320 HW2           1 RES     
   10915 OW          46.7940    41.1510    10.4930 OW            1 RES     
   10916 HW1         45.8400    41.2120    10.7860 HW1           1 RES     
   10917 HW2         46.8320    40.8400     9.5430 HW2           1 RES     
   10918 OW          19.1630    17.1940     5.4470 OW            1 RES     
   10919 HW1         18.3630    16.6090     5.3260 HW1           1 RES     
   10920 HW2         19.4170    17.2170     6.4140 HW2           1 RES     
   10921 OW          24.0030    41.3290    14.1200 OW            1 RES     
   10922 HW1         24.8970    41.0950    13.7390 HW1           1 RES     
   10923 HW2         23.9270    42.3230    14.2040 HW2           1 RES     
   10924 OW          43.5230    17.6280    12.5040 OW            1 RES     
   10925 HW1         43.7470    17.8550    13.4510 HW1           1 RES     
   10926 HW2         42.7000    17.0610    12.4820 HW2           1 RES     
   10927 OW          22.1660     7.1190    12.4760 OW            1 RES     
   10928 HW1         21.4810     6.9620    13.1860 HW1           1 RES     
   10929 HW2         22.6540     6.2670    12.2870 HW2           1 RES     
   10930 OW          46.9090    16.1520     5.6020 OW            1 RES     
   10931 HW1         46.8850    16.9920     5.0600 HW1           1 RES     
   10932 HW2         47.7530    15.6530     5.4060 HW2           1 RES     
   10933 OW           5.3060    26.1480     4.0650 OW            1 RES     
   10934 HW1          4.5650    26.8180     4.0410 HW1           1 RES     
   10935 HW2          6.1860    26.6230     4.0300 HW2           1 RES     
   10936 OW          41.4960    11.2040     6.7630 OW            1 RES     
   10937 HW1         41.4110    10.2450     6.4960 HW1           1 RES     
   10938 HW2         40.5870    11.5870     6.9300 HW2           1 RES     
   10939 OW           7.8820    14.9760     9.4510 OW            1 RES     
   10940 HW1          7.8350    14.1120     9.9520 HW1           1 RES     
   10941 HW2          7.3680    15.6770     9.9450 HW2           1 RES     
   10942 OW          49.7820    19.0710     8.0160 OW            1 RES     
   10943 HW1         50.2170    18.2830     8.4520 HW1           1 RES     
   10944 HW2         48.7880    18.9800     8.0790 HW2           1 RES     
   10945 OW          47.3420    12.6080     5.9270 OW            1 RES     
   10946 HW1         48.2640    12.9920     5.9660 HW1           1 RES     
   10947 HW2         46.9620    12.7450     5.0120 HW2           1 RES     
   10948 OW          11.7070    12.1020    13.4420 OW            1 RES     
   10949 HW1         11.3290    13.0090    13.2570 HW1           1 RES     
   10950 HW2         10.9760    11.4910    13.7460 HW2           1 RES     
   10951 OW          54.2130    35.6410     8.2220 OW            1 RES     
   10952 HW1         54.7800    34.8820     7.9050 HW1           1 RES     
   10953 HW2         54.7840    36.3050     8.7060 HW2           1 RES     
   10954 OW          25.5140    26.8260     5.4380 OW            1 RES     
   10955 HW1         25.2070    27.3320     6.2430 HW1           1 RES     
   10956 HW2         25.7410    27.4690     4.7050 HW2           1 RES     
   10957 OW          47.5570    46.6150    11.7130 OW            1 RES     
   10958 HW1         47.7570    45.7500    12.1710 HW1           1 RES     
   10959 HW2         47.6690    47.3690    12.3610 HW2           1 RES     
   10960 OW           7.2770     6.3040     5.6780 OW            1 RES     
   10961 HW1          7.9470     6.4920     4.9610 HW1           1 RES     
   10962 HW2          6.4180     6.7710     5.4640 HW2           1 RES     
   10963 OW          27.1930    39.6700    12.9310 OW            1 RES     
   10964 HW1         27.2870    40.2660    12.1340 HW1           1 RES     
   10965 HW2         27.7150    40.0500    13.6950 HW2           1 RES     
   10966 OW           6.1750    44.8390    12.5500 OW            1 RES     
   10967 HW1          6.6610    44.1750    13.1170 HW1           1 RES     
   10968 HW2          5.4750    45.2970    13.0990 HW2           1 RES     
   10969 OW          44.2210     8.6770     9.3110 OW            1 RES     
   10970 HW1         43.4130     9.1900     9.5980 HW1           1 RES     
   10971 HW2         44.5510     8.1200    10.0740 HW2           1 RES     
   10972 OW          30.1010    33.4020     8.2720 OW            1 RES     
   10973 HW1         29.1230    33.3270     8.0820 HW1           1 RES     
   10974 HW2         30.3300    34.3560     8.4670 HW2           1 RES     
   10975 OW          50.6080    39.1120     9.9340 OW            1 RES     
   10976 HW1         50.3320    40.0710     9.9800 HW1           1 RES     
   10977 HW2         49.8820    38.5370    10.3130 HW2           1 RES     
   10978 OW          35.4670    18.1040     8.1740 OW            1 RES     
   10979 HW1         35.2420    17.1980     8.5310 HW1           1 RES     
   10980 HW2         35.3690    18.7830     8.9010 HW2           1 RES     
   10981 OW          25.6650    21.8170     5.3510 OW            1 RES     
   10982 HW1         25.8840    22.7820     5.4940 HW1           1 RES     
   10983 HW2         26.2190    21.2550     5.9650 HW2           1 RES     
   10984 OW          39.1750    14.0850     5.9800 OW            1 RES     
   10985 HW1         39.1210    13.0880     6.0220 HW1           1 RES     
   10986 HW2         40.1130    14.3770     6.1680 HW2           1 RES     
   10987 OW          22.9410    23.3380     6.3510 OW            1 RES     
   10988 HW1         23.9290    23.4480     6.2530 HW1           1 RES     
   10989 HW2         22.5050    24.2380     6.3660 HW2           1 RES     
   10990 OW          39.6920    52.7690     3.6100 OW            1 RES     
   10991 HW1         38.8870    53.3470     3.4810 HW1           1 RES     
   10992 HW2         40.5110    53.3420     3.6520 HW2           1 RES     
   10993 OW          53.0160    50.7040     3.1770 OW            1 RES     
   10994 HW1         53.9930    50.5050     3.1170 HW1           1 RES     
   10995 HW2         52.5020    49.8470     3.2210 HW2           1 RES     
   10996 OW          47.1380    42.4290     7.4510 OW            1 RES     
   10997 HW1         47.9640    42.1150     7.9190 HW1           1 RES     
   10998 HW2         46.5700    41.6410     7.2120 HW2           1 RES     
   10999 OW          47.3430    16.1280     9.9770 OW            1 RES     
   11000 HW1         47.0820    15.2560     9.5640 HW1           1 RES     
   11001 HW2         46.8240    16.8680     9.5490 HW2           1 RES     
   11002 OW          37.4570     7.6800     8.6300 OW            1 RES     
   11003 HW1         37.3130     8.6630     8.5220 HW1           1 RES     
   11004 HW2         38.3770     7.5150     8.9850 HW2           1 RES     
   11005 OW           5.7530    34.1190     2.6610 OW            1 RES     
   11006 HW1          6.0690    35.0600     2.5470 HW1           1 RES     
   11007 HW2          6.5310    33.4940     2.5970 HW2           1 RES     
   11008 OW          13.7390    32.1750     6.4270 OW            1 RES     
   11009 HW1         14.2960    32.9360     6.0960 HW1           1 RES     
   11010 HW2         13.0340    31.9590     5.7510 HW2           1 RES     
   11011 OW          16.7400     8.8330    13.7370 OW            1 RES     
   11012 HW1         17.2070     9.2840    12.9770 HW1           1 RES     
   11013 HW2         15.7980     9.1660    13.7950 HW2           1 RES     
   11014 OW          13.1400    47.4760    13.2610 OW            1 RES     
   11015 HW1         12.9110    46.6240    12.7920 HW1           1 RES     
   11016 HW2         12.3660    48.1070    13.2040 HW2           1 RES     
   11017 OW           6.6780    18.3900    12.0550 OW            1 RES     
   11018 HW1          7.4080    17.8270    11.6690 HW1           1 RES     
   11019 HW2          6.0670    17.8170    12.6010 HW2           1 RES     
   11020 OW          16.9580    48.3510    13.2300 OW            1 RES     
   11021 HW1         17.3810    49.0590    13.7950 HW1           1 RES     
   11022 HW2         17.6700    47.7720    12.8330 HW2           1 RES     
   11023 OW          30.1510    34.8160     6.0280 OW            1 RES     
   11024 HW1         29.5480    34.0190     6.0380 HW1           1 RES     
   11025 HW2         30.9750    34.6050     5.5010 HW2           1 RES     
   11026 OW          22.4190    40.6320     9.3080 OW            1 RES     
   11027 HW1         21.9370    39.7560     9.3020 HW1           1 RES     
   11028 HW2         21.7700    41.3690     9.4940 HW2           1 RES     
   11029 OW          47.0200    28.9180    11.1680 OW            1 RES     
   11030 HW1         48.0100    29.0420    11.0970 HW1           1 RES     
   11031 HW2         46.8130    28.3220    11.9440 HW2           1 RES     
   11032 OW          26.2950    28.7750    11.6370 OW            1 RES     
   11033 HW1         25.8020    28.1790    11.0040 HW1           1 RES     
   11034 HW2         27.2800    28.6550    11.5110 HW2           1 RES     
   11035 OW          29.3210    46.3340     3.1360 OW            1 RES     
   11036 HW1         28.9350    45.4410     2.9070 HW1           1 RES     
   11037 HW2         28.7190    47.0560     2.7930 HW2           1 RES     
   11038 OW          10.6030    18.3520    10.5510 OW            1 RES     
   11039 HW1          9.9090    18.5070    11.2540 HW1           1 RES     
   11040 HW2         11.2780    19.0890    10.5800 HW2           1 RES     
   11041 OW           3.2660    29.9710     7.8530 OW            1 RES     
   11042 HW1          2.5530    29.8780     7.1590 HW1           1 RES     
   11043 HW2          4.1380    30.1800     7.4100 HW2           1 RES     
   11044 OW          40.8700    39.8380     5.7530 OW            1 RES     
   11045 HW1         41.4550    39.7200     6.5540 HW1           1 RES     
   11046 HW2         39.9630    40.1440     6.0440 HW2           1 RES     
   11047 OW          32.7380    11.6900    13.9240 OW            1 RES     
   11048 HW1         32.2660    12.5660    14.0100 HW1           1 RES     
   11049 HW2         33.6930    11.7960    14.2030 HW2           1 RES     
   11050 OW          45.8650    31.4390     3.3010 OW            1 RES     
   11051 HW1         46.4550    31.5470     2.5020 HW1           1 RES     
   11052 HW2         46.1540    30.6360     3.8240 HW2           1 RES     
   11053 OW          13.2590    51.7440     7.9240 OW            1 RES     
   11054 HW1         13.5640    52.5980     7.5050 HW1           1 RES     
   11055 HW2         12.3000    51.5820     7.6920 HW2           1 RES     
   11056 OW          48.2330    38.0470     4.5760 OW            1 RES     
   11057 HW1         48.3530    37.5440     5.4310 HW1           1 RES     
   11058 HW2         48.9770    38.7090     4.4700 HW2           1 RES     
   11059 OW          39.2110    49.8850     3.4940 OW            1 RES     
   11060 HW1         38.3660    50.4180     3.5110 HW1           1 RES     
   11061 HW2         39.9840    50.4910     3.3080 HW2           1 RES     
   11062 OW           9.2740    43.5050     2.5040 OW            1 RES     
   11063 HW1         10.1750    43.0770     2.5630 HW1           1 RES     
   11064 HW2          9.3750    44.5000     2.5000 HW2           1 RES     
   11065 OW          25.9470     7.5540     2.8160 OW            1 RES     
   11066 HW1         25.9420     6.8660     3.5410 HW1           1 RES     
   11067 HW2         25.0140     7.8750     2.6530 HW2           1 RES     
   11068 OW          38.5180    42.4850     4.2670 OW            1 RES     
   11069 HW1         39.1290    42.0000     4.8920 HW1           1 RES     
   11070 HW2         37.9060    41.8300     3.8230 HW2           1 RES     
   11071 OW          34.5860     6.9900     7.0970 OW            1 RES     
   11072 HW1         34.7880     6.0130     7.0260 HW1           1 RES     
   11073 HW2         35.4160     7.4850     7.3550 HW2           1 RES     
   11074 OW          36.9080    27.6770     8.2490 OW            1 RES     
   11075 HW1         37.2780    27.8530     7.3380 HW1           1 RES     
   11076 HW2         37.3180    26.8440     8.6220 HW2           1 RES     
   11077 OW          40.6780    36.6630     7.2210 OW            1 RES     
   11078 HW1         39.8950    36.0540     7.0980 HW1           1 RES     
   11079 HW2         40.3640    37.6130     7.2290 HW2           1 RES     
   11080 OW          17.8860    20.4450     8.5040 OW            1 RES     
   11081 HW1         18.3450    19.5910     8.7460 HW1           1 RES     
   11082 HW2         18.5710    21.1490     8.3120 HW2           1 RES     
   11083 OW          39.8360    47.0910     9.6880 OW            1 RES     
   11084 HW1         40.3810    47.8820     9.9660 HW1           1 RES     
   11085 HW2         40.4300    46.2910     9.6030 HW2           1 RES     
   11086 OW          48.4340    42.7290     3.0830 OW            1 RES     
   11087 HW1         48.1010    41.9820     2.5080 HW1           1 RES     
   11088 HW2         48.7680    43.4730     2.5040 HW2           1 RES     
   11089 OW          23.0580    42.7060    10.8360 OW            1 RES     
   11090 HW1         23.8510    43.3120    10.7770 HW1           1 RES     
   11091 HW2         23.3300    41.8430    11.2620 HW2           1 RES     
   11092 OW          54.0540    10.0850    11.2040 OW            1 RES     
   11093 HW1         54.7810     9.3990    11.2030 HW1           1 RES     
   11094 HW2         54.4580    11.0000    11.2030 HW2           1 RES     
   11095 OW          22.9670    16.1170     8.0440 OW            1 RES     
   11096 HW1         23.5570    16.4950     8.7560 HW1           1 RES     
   11097 HW2         22.7400    16.8340     7.3840 HW2           1 RES     
   11098 OW          14.5610    20.5470     9.6690 OW            1 RES     
   11099 HW1         13.5750    20.5650     9.8330 HW1           1 RES     
   11100 HW2         14.8830    19.6000     9.6790 HW2           1 RES     
   11101 OW          12.8580    31.2110     9.4710 OW            1 RES     
   11102 HW1         13.8430    31.0430     9.4440 HW1           1 RES     
   11103 HW2         12.6810    32.0880     9.9190 HW2           1 RES     
   11104 OW          39.5450     2.5830    12.5070 OW            1 RES     
   11105 HW1         38.6610     2.5010    12.0490 HW1           1 RES     
   11106 HW2         39.4620     3.2080    13.2830 HW2           1 RES     
   11107 OW          25.4020    29.7090     3.3600 OW            1 RES     
   11108 HW1         26.0220    29.6170     4.1380 HW1           1 RES     
   11109 HW2         24.8440    28.8830     3.2780 HW2           1 RES     
   11110 OW          36.7550    41.0980     5.8230 OW            1 RES     
   11111 HW1         37.0690    42.0280     6.0100 HW1           1 RES     
   11112 HW2         37.5420    40.5150     5.6180 HW2           1 RES     
   11113 OW           9.3660    15.7410     5.0380 OW            1 RES     
   11114 HW1          8.6410    15.7030     5.7240 HW1           1 RES     
   11115 HW2          9.0850    16.3400     4.2880 HW2           1 RES     
   11116 OW           7.4270    19.4770    10.2090 OW            1 RES     
   11117 HW1          6.5620    19.9730    10.2760 HW1           1 RES     
   11118 HW2          8.1820    20.1300    10.1440 HW2           1 RES     
   11119 OW          12.4900    27.8290     4.9020 OW            1 RES     
   11120 HW1         13.3990    28.1620     5.1500 HW1           1 RES     
   11121 HW2         12.2390    27.0680     5.5000 HW2           1 RES     
   11122 OW          32.8540    51.2140     5.2190 OW            1 RES     
   11123 HW1         32.4960    50.3870     5.6490 HW1           1 RES     
   11124 HW2         32.4290    52.0180     5.6350 HW2           1 RES     
   11125 OW           3.9720    29.7200     2.5630 OW            1 RES     
   11126 HW1          4.1580    29.4220     3.4990 HW1           1 RES     
   11127 HW2          3.0440    30.0890     2.5080 HW2           1 RES     
   11128 OW          16.8220    37.0740     8.2200 OW            1 RES     
   11129 HW1         16.7630    37.5510     7.3440 HW1           1 RES     
   11130 HW2         17.7340    37.2010     8.6080 HW2           1 RES     
   11131 OW           4.1990    48.2300     8.7050 OW            1 RES     
   11132 HW1          3.2350    47.9760     8.6420 HW1           1 RES     
   11133 HW2          4.3910    48.5930     9.6170 HW2           1 RES     
   11134 OW          33.8620    21.8020    14.1660 OW            1 RES     
   11135 HW1         34.1990    20.8620    14.2050 HW1           1 RES     
   11136 HW2         32.8620    21.7980    14.1550 HW2           1 RES     
   11137 OW          46.0700    38.3350     4.8540 OW            1 RES     
   11138 HW1         45.1400    38.7000     4.8240 HW1           1 RES     
   11139 HW2         46.1750    37.7540     5.6610 HW2           1 RES     
   11140 OW          17.2650    25.1190    13.8860 OW            1 RES     
   11141 HW1         16.3800    25.5280    14.1060 HW1           1 RES     
   11142 HW2         17.2830    24.1700    14.2030 HW2           1 RES     
   11143 OW          31.5680    26.4550     8.5940 OW            1 RES     
   11144 HW1         31.1040    25.5930     8.3900 HW1           1 RES     
   11145 HW2         31.1470    26.8780     9.3970 HW2           1 RES     
   11146 OW          25.3340    50.5030    14.2040 OW            1 RES     
   11147 HW1         24.4340    50.0750    14.1240 HW1           1 RES     
   11148 HW2         25.2330    51.4980    14.1830 HW2           1 RES     
   11149 OW          27.9680    43.4190     2.7200 OW            1 RES     
   11150 HW1         27.5040    42.5350     2.7660 HW1           1 RES     
   11151 HW2         28.9330    43.2790     2.5000 HW2           1 RES     
   11152 OW          36.4280    43.7060     4.7390 OW            1 RES     
   11153 HW1         35.9280    43.8610     5.5900 HW1           1 RES     
   11154 HW2         36.7690    44.5780     4.3880 HW2           1 RES     
   11155 OW          11.7890     8.4480    12.2140 OW            1 RES     
   11156 HW1         11.9230     9.3890    12.5200 HW1           1 RES     
   11157 HW2         11.8420     7.8300    12.9990 HW2           1 RES     
   11158 OW          36.7630    32.8490     3.8030 OW            1 RES     
   11159 HW1         37.2470    32.1730     4.3570 HW1           1 RES     
   11160 HW2         37.2070    33.7400     3.9000 HW2           1 RES     
   11161 OW          36.4560    12.0130     6.6190 OW            1 RES     
   11162 HW1         37.1340    12.6980     6.8810 HW1           1 RES     
   11163 HW2         36.5740    11.7780     5.6540 HW2           1 RES     
   11164 OW          24.2650    44.5860     7.7890 OW            1 RES     
   11165 HW1         23.2720    44.6700     7.7270 HW1           1 RES     
   11166 HW2         24.6760    45.4980     7.8260 HW2           1 RES     
   11167 OW          20.7660    23.3340     8.9500 OW            1 RES     
   11168 HW1         21.2310    23.6540     8.1260 HW1           1 RES     
   11169 HW2         20.4260    22.4050     8.8020 HW2           1 RES     
   11170 OW          29.1540    20.0070    13.6550 OW            1 RES     
   11171 HW1         28.6730    20.8630    13.8410 HW1           1 RES     
   11172 HW2         30.1410    20.1610    13.7040 HW2           1 RES     
   11173 OW          23.0800    47.3660     6.7510 OW            1 RES     
   11174 HW1         22.3750    46.7540     6.3950 HW1           1 RES     
   11175 HW2         22.6490    48.1600     7.1810 HW2           1 RES     
   11176 OW          50.2870    28.8530     4.4310 OW            1 RES     
   11177 HW1         51.1530    28.3900     4.6160 HW1           1 RES     
   11178 HW2         50.3930    29.8350     4.5930 HW2           1 RES     
   11179 OW          11.6810    27.4460     7.6980 OW            1 RES     
   11180 HW1         12.6060    27.7910     7.5450 HW1           1 RES     
   11181 HW2         11.7200    26.4670     7.9030 HW2           1 RES     
   11182 OW          52.7150    33.1570    13.1570 OW            1 RES     
   11183 HW1         53.4520    32.6170    12.7500 HW1           1 RES     
   11184 HW2         52.3640    32.6850    13.9660 HW2           1 RES     
   11185 OW          24.5700     7.3380    11.2120 OW            1 RES     
   11186 HW1         24.1840     7.8490    11.9790 HW1           1 RES     
   11187 HW2         25.0490     6.5310    11.5550 HW2           1 RES     
   11188 OW          41.7820    48.4310     3.1920 OW            1 RES     
   11189 HW1         40.8180    48.4900     2.9360 HW1           1 RES     
   11190 HW2         42.1300    49.3470     3.3950 HW2           1 RES     
   11191 OW          23.0240    44.5990     5.5390 OW            1 RES     
   11192 HW1         23.2440    44.8160     4.5890 HW1           1 RES     
   11193 HW2         22.0370    44.4590     5.6300 HW2           1 RES     
   11194 OW          25.2160     5.2460    13.3400 OW            1 RES     
   11195 HW1         25.8530     4.4990    13.1530 HW1           1 RES     
   11196 HW2         24.3080     5.0030    12.9990 HW2           1 RES     
   11197 OW           9.0760    30.3850    12.5740 OW            1 RES     
   11198 HW1          8.3300    30.8970    13.0000 HW1           1 RES     
   11199 HW2          8.7080    29.7980    11.8530 HW2           1 RES     
   11200 OW          18.1290     5.4370     7.4090 OW            1 RES     
   11201 HW1         17.7350     5.9670     8.1590 HW1           1 RES     
   11202 HW2         19.0580     5.7600     7.2240 HW2           1 RES     
   11203 OW           8.7710    23.2440     5.1330 OW            1 RES     
   11204 HW1          9.6910    23.5550     4.8960 HW1           1 RES     
   11205 HW2          8.4720    22.5520     4.4760 HW2           1 RES     
   11206 OW          20.0600    39.7780     7.7900 OW            1 RES     
   11207 HW1         19.4330    40.3130     8.3550 HW1           1 RES     
   11208 HW2         19.5360    39.2210     7.1450 HW2           1 RES     
   11209 OW          32.4820    34.7200     8.7450 OW            1 RES     
   11210 HW1         32.0640    35.2740     9.4640 HW1           1 RES     
   11211 HW2         33.3780    35.0970     8.5120 HW2           1 RES     
   11212 OW          37.5420    27.4210    12.0920 OW            1 RES     
   11213 HW1         36.7940    27.2520    12.7310 HW1           1 RES     
   11214 HW2         37.5410    26.7170    11.3820 HW2           1 RES     
   11215 OW          15.2110    26.1810     5.3970 OW            1 RES     
   11216 HW1         15.5110    25.2300     5.3290 HW1           1 RES     
   11217 HW2         14.2550    26.2090     5.6900 HW2           1 RES     
   11218 OW          53.9220     5.1500     7.1320 OW            1 RES     
   11219 HW1         54.7860     4.8700     7.5480 HW1           1 RES     
   11220 HW2         53.8320     6.1450     7.1860 HW2           1 RES     
   11221 OW          47.1410    11.9770    11.5120 OW            1 RES     
   11222 HW1         48.0340    12.3360    11.2440 HW1           1 RES     
   11223 HW2         46.4390    12.3340    10.8960 HW2           1 RES     
   11224 OW          50.2420    21.9040    13.0230 OW            1 RES     
   11225 HW1         50.9100    21.3550    13.5240 HW1           1 RES     
   11226 HW2         50.5990    22.8300    12.8950 HW2           1 RES     
   11227 OW           3.5390    52.5040    13.9000 OW            1 RES     
   11228 HW1          2.7850    53.1350    13.7240 HW1           1 RES     
   11229 HW2          3.1730    51.5940    14.0980 HW2           1 RES     
   11230 OW          16.3940    22.1290    11.7600 OW            1 RES     
   11231 HW1         16.0740    22.9010    11.2110 HW1           1 RES     
   11232 HW2         15.7530    21.3660    11.6670 HW2           1 RES     
   11233 OW          38.7780    39.0340     4.5600 OW            1 RES     
   11234 HW1         38.3440    38.8440     3.6800 HW1           1 RES     
   11235 HW2         39.5630    38.4270     4.6830 HW2           1 RES     
   11236 OW          17.4950    28.1310     2.5140 OW            1 RES     
   11237 HW1         18.1060    28.9220     2.5000 HW1           1 RES     
   11238 HW2         17.6360    27.6160     3.3600 HW2           1 RES     
   11239 OW          32.7150    11.6900     7.7390 OW            1 RES     
   11240 HW1         32.5390    10.8330     8.2230 HW1           1 RES     
   11241 HW2         31.9010    11.9530     7.2210 HW2           1 RES     
   11242 OW          44.4570     8.5260     2.5030 OW            1 RES     
   11243 HW1         44.9980     7.6860     2.5000 HW1           1 RES     
   11244 HW2         45.0700     9.3170     2.5050 HW2           1 RES     
   11245 OW          13.8180    36.3640    10.5270 OW            1 RES     
   11246 HW1         14.4330    36.4600    11.3090 HW1           1 RES     
   11247 HW2         13.1450    37.1040    10.5380 HW2           1 RES     
   11248 OW          40.1100    23.0280     6.3760 OW            1 RES     
   11249 HW1         40.9110    23.4710     5.9750 HW1           1 RES     
   11250 HW2         40.4060    22.3280     7.0270 HW2           1 RES     
   11251 OW          35.2150    36.0410    13.3530 OW            1 RES     
   11252 HW1         34.2990    35.7500    13.0780 HW1           1 RES     
   11253 HW2         35.1580    36.5630    14.2050 HW2           1 RES     
   11254 OW          30.1320    28.3830     3.5060 OW            1 RES     
   11255 HW1         30.8180    29.0120     3.1420 HW1           1 RES     
   11256 HW2         29.4710    28.1590     2.7890 HW2           1 RES     
   11257 OW          11.1690    33.1080    12.8860 OW            1 RES     
   11258 HW1         11.1460    33.2000    13.8810 HW1           1 RES     
   11259 HW2         10.2720    32.8100    12.5580 HW2           1 RES     
   11260 OW          18.2690    49.3700     8.7600 OW            1 RES     
   11261 HW1         19.1750    48.9680     8.6330 HW1           1 RES     
   11262 HW2         18.3360    50.3670     8.7090 HW2           1 RES     
   11263 OW          44.4650    22.4540     3.7640 OW            1 RES     
   11264 HW1         44.7060    23.2240     4.3540 HW1           1 RES     
   11265 HW2         45.2840    22.1240     3.2940 HW2           1 RES     
   11266 OW          31.7260    16.6930     5.7510 OW            1 RES     
   11267 HW1         32.1600    15.7930     5.7820 HW1           1 RES     
   11268 HW2         30.7390    16.5840     5.6310 HW2           1 RES     
   11269 OW          27.2180    35.8750     4.1700 OW            1 RES     
   11270 HW1         28.1600    35.7210     4.4660 HW1           1 RES     
   11271 HW2         27.2180    36.3000     3.2650 HW2           1 RES     
   11272 OW           3.7590    27.5930    10.3760 OW            1 RES     
   11273 HW1          3.2260    28.0900    11.0590 HW1           1 RES     
   11274 HW2          4.1770    26.7880    10.7990 HW2           1 RES     
   11275 OW          30.9140    48.3700     7.9200 OW            1 RES     
   11276 HW1         31.6790    47.7450     8.0690 HW1           1 RES     
   11277 HW2         30.7400    48.8900     8.7560 HW2           1 RES     
   11278 OW          44.6700    22.4230     8.5280 OW            1 RES     
   11279 HW1         44.8210    23.4100     8.5810 HW1           1 RES     
   11280 HW2         45.5520    21.9520     8.5050 HW2           1 RES     
   11281 OW          36.1760    11.4700    12.4680 OW            1 RES     
   11282 HW1         35.2070    11.6680    12.6110 HW1           1 RES     
   11283 HW2         36.5700    11.1050    13.3110 HW2           1 RES     
   11284 OW           3.1540    53.0190     6.6250 OW            1 RES     
   11285 HW1          4.1490    53.0210     6.7130 HW1           1 RES     
   11286 HW2          2.7960    53.9240     6.8530 HW2           1 RES     
   11287 OW          41.1230    30.9650    13.2850 OW            1 RES     
   11288 HW1         40.6790    30.9880    14.1800 HW1           1 RES     
   11289 HW2         40.8970    31.7970    12.7780 HW2           1 RES     
   11290 OW          31.8790     2.7010    10.3420 OW            1 RES     
   11291 HW1         32.5700     3.4170    10.4350 HW1           1 RES     
   11292 HW2         31.7340     2.5000     9.3740 HW2           1 RES     
   11293 OW          30.9320    17.2460    11.3610 OW            1 RES     
   11294 HW1         31.7600    16.8310    11.7350 HW1           1 RES     
   11295 HW2         30.9610    18.2360    11.5040 HW2           1 RES     
   11296 OW          24.7480    50.3380     8.3340 OW            1 RES     
   11297 HW1         24.1520    50.4790     9.1250 HW1           1 RES     
   11298 HW2         24.3090    49.7060     7.6950 HW2           1 RES     
   11299 OW          10.6980     4.3850     8.1270 OW            1 RES     
   11300 HW1         10.9010     3.4450     8.3960 HW1           1 RES     
   11301 HW2         11.1200     4.5780     7.2410 HW2           1 RES     
   11302 OW          23.5670    46.0790     9.9770 OW            1 RES     
   11303 HW1         23.2460    46.6280    10.7490 HW1           1 RES     
   11304 HW2         23.0800    45.2060     9.9630 HW2           1 RES     
   11305 OW          46.1310    35.5810     9.4460 OW            1 RES     
   11306 HW1         45.6420    34.7650     9.1380 HW1           1 RES     
   11307 HW2         47.1100    35.3830     9.5000 HW2           1 RES     
   11308 OW          16.5490    42.6480     8.4610 OW            1 RES     
   11309 HW1         16.2460    43.3840     7.8570 HW1           1 RES     
   11310 HW2         16.1870    42.8010     9.3810 HW2           1 RES     
   11311 OW          48.6830    43.7750     6.6500 OW            1 RES     
   11312 HW1         48.3200    44.6970     6.7780 HW1           1 RES     
   11313 HW2         49.6260    43.8290     6.3200 HW2           1 RES     
   11314 OW           6.5870     3.9550     5.0100 OW            1 RES     
   11315 HW1          7.1970     4.4930     4.4290 HW1           1 RES     
   11316 HW2          6.7480     4.1880     5.9690 HW2           1 RES     
   11317 OW           8.7510    49.0250     9.4180 OW            1 RES     
   11318 HW1          8.4390    48.1530     9.7920 HW1           1 RES     
   11319 HW2          9.5250    49.3610     9.9540 HW2           1 RES     
   11320 OW          27.4240    51.4550    11.5490 OW            1 RES     
   11321 HW1         26.4410    51.3900    11.7120 HW1           1 RES     
   11322 HW2         27.8390    50.5490    11.6400 HW2           1 RES     
   11323 OW          17.3710    40.2670    11.1500 OW            1 RES     
   11324 HW1         16.7410    40.2960    11.9250 HW1           1 RES     
   11325 HW2         17.5650    39.3150    10.9130 HW2           1 RES     
   11326 OW          34.9020    50.2860     2.7430 OW            1 RES     
   11327 HW1         34.6390    49.7200     3.5240 HW1           1 RES     
   11328 HW2         35.5600    50.9780     3.0390 HW2           1 RES     
   11329 OW          17.2810    37.6630     5.1680 OW            1 RES     
   11330 HW1         17.8050    38.3970     5.6000 HW1           1 RES     
   11331 HW2         17.9090    37.0050     4.7530 HW2           1 RES     
   11332 OW          31.8370    37.6720     8.8120 OW            1 RES     
   11333 HW1         32.0990    38.5330     9.2470 HW1           1 RES     
   11334 HW2         32.6590    37.1760     8.5310 HW2           1 RES     
   11335 OW          12.9090    39.0740    12.7210 OW            1 RES     
   11336 HW1         12.3880    39.3050    11.9000 HW1           1 RES     
   11337 HW2         12.7400    38.1190    12.9650 HW2           1 RES     
   11338 OW          32.0000    13.2340     2.5010 OW            1 RES     
   11339 HW1         32.5690    14.0100     2.7710 HW1           1 RES     
   11340 HW2         32.4590    12.3810     2.7480 HW2           1 RES     
   11341 OW          39.9640    30.3590     3.3880 OW            1 RES     
   11342 HW1         40.9340    30.3100     3.1510 HW1           1 RES     
   11343 HW2         39.6210    31.2800     3.2050 HW2           1 RES     
   11344 OW          40.9480    34.7000     4.5870 OW            1 RES     
   11345 HW1         40.0690    35.1670     4.4920 HW1           1 RES     
   11346 HW2         41.4070    35.0170     5.4170 HW2           1 RES     
   11347 OW          39.4110    21.1570     5.4480 OW            1 RES     
   11348 HW1         38.9380    20.5310     6.0670 HW1           1 RES     
   11349 HW2         40.3680    20.8810     5.3600 HW2           1 RES     
   11350 OW          17.2720    15.2820    12.2860 OW            1 RES     
   11351 HW1         17.4470    15.2650    11.3020 HW1           1 RES     
   11352 HW2         18.1350    15.1760    12.7810 HW2           1 RES     
   11353 OW          16.6970    49.5600     7.0400 OW            1 RES     
   11354 HW1         16.1780    49.5570     6.1860 HW1           1 RES     
   11355 HW2         16.4490    50.3660     7.5780 HW2           1 RES     
   11356 OW          21.3830    53.8310     6.8830 OW            1 RES     
   11357 HW1         21.4620    53.1610     7.6200 HW1           1 RES     
   11358 HW2         20.6400    54.4680     7.0900 HW2           1 RES     
   11359 OW          26.4910     7.0480     5.6640 OW            1 RES     
   11360 HW1         27.0780     7.8550     5.6240 HW1           1 RES     
   11361 HW2         25.5360     7.3330     5.7580 HW2           1 RES     
   11362 OW          36.7390    15.3830    10.3640 OW            1 RES     
   11363 HW1         37.0160    16.1300    10.9690 HW1           1 RES     
   11364 HW2         35.8720    15.6150     9.9220 HW2           1 RES     
   11365 OW          26.1350    44.0260     5.9450 OW            1 RES     
   11366 HW1         25.8980    43.5170     5.1190 HW1           1 RES     
   11367 HW2         25.6530    44.9020     5.9470 HW2           1 RES     
   11368 OW          18.1320     8.1210     8.3690 OW            1 RES     
   11369 HW1         18.9590     8.3950     8.8570 HW1           1 RES     
   11370 HW2         17.5580     8.9240     8.2070 HW2           1 RES     
   11371 OW          28.2270    31.8010    14.2040 OW            1 RES     
   11372 HW1         29.1670    32.1380    14.1600 HW1           1 RES     
   11373 HW2         27.5930    32.5750    14.1860 HW2           1 RES     
   11374 OW          30.0910    25.7330    14.1130 OW            1 RES     
   11375 HW1         30.9840    25.2930    14.2010 HW1           1 RES     
   11376 HW2         29.3710    25.0420    14.1750 HW2           1 RES     
   11377 OW          35.1000    39.7690     6.4000 OW            1 RES     
   11378 HW1         34.2710    39.2870     6.1180 HW1           1 RES     
   11379 HW2         35.8770    39.1390     6.3740 HW2           1 RES     
   11380 OW           3.4020    44.4020    12.8130 OW            1 RES     
   11381 HW1          3.6890    43.8250    13.5760 HW1           1 RES     
   11382 HW2          2.5090    44.8040    13.0160 HW2           1 RES     
   11383 OW          43.0600    19.0790     5.1140 OW            1 RES     
   11384 HW1         42.2880    19.6890     4.9410 HW1           1 RES     
   11385 HW2         42.9800    18.2660     4.5360 HW2           1 RES     
   11386 OW          26.0160    35.3820     6.5830 OW            1 RES     
   11387 HW1         26.7270    36.0320     6.3150 HW1           1 RES     
   11388 HW2         25.2200    35.8810     6.9270 HW2           1 RES     
   11389 OW          38.4860    51.0890     8.1210 OW            1 RES     
   11390 HW1         39.2360    51.7490     8.0940 HW1           1 RES     
   11391 HW2         38.8470    50.1670     7.9770 HW2           1 RES     
   11392 OW          50.4790     7.3940     9.5600 OW            1 RES     
   11393 HW1         50.4820     7.1390     8.5940 HW1           1 RES     
   11394 HW2         51.0850     8.1770     9.7000 HW2           1 RES     
   11395 OW          43.2530     8.8440     5.4300 OW            1 RES     
   11396 HW1         44.0820     8.2860     5.4510 HW1           1 RES     
   11397 HW2         42.5560     8.4290     6.0160 HW2           1 RES     
   11398 OW          35.9090    43.9800    13.1080 OW            1 RES     
   11399 HW1         35.3480    44.8050    13.1760 HW1           1 RES     
   11400 HW2         36.8030    44.2150    12.7270 HW2           1 RES     
   11401 OW          42.1810    23.5640    11.2200 OW            1 RES     
   11402 HW1         43.1060    23.3320    10.9230 HW1           1 RES     
   11403 HW2         41.5530    23.4930    10.4450 HW2           1 RES     
   11404 OW           6.8240    28.4880    10.2980 OW            1 RES     
   11405 HW1          5.9670    28.0430    10.5550 HW1           1 RES     
   11406 HW2          7.5560    28.1800    10.9060 HW2           1 RES     
   11407 OW          38.7030    41.8350     7.5100 OW            1 RES     
   11408 HW1         38.4020    40.8870     7.6090 HW1           1 RES     
   11409 HW2         39.7000    41.8630     7.4410 HW2           1 RES     
   11410 OW          50.3720    38.0680     6.2410 OW            1 RES     
   11411 HW1         50.9720    37.2830     6.3920 HW1           1 RES     
   11412 HW2         50.8360    38.7360     5.6600 HW2           1 RES     
   11413 OW           7.0760    16.9110     7.9710 OW            1 RES     
   11414 HW1          7.5670    16.1230     7.6010 HW1           1 RES     
   11415 HW2          7.7240    17.5250     8.4230 HW2           1 RES     
   11416 OW          46.1890     4.3530    12.0790 OW            1 RES     
   11417 HW1         46.4550     3.3900    12.0630 HW1           1 RES     
   11418 HW2         47.0090     4.9260    12.0940 HW2           1 RES     
   11419 OW          17.6380    42.3250     2.5190 OW            1 RES     
   11420 HW1         16.6880    42.5570     2.7250 HW1           1 RES     
   11421 HW2         17.7440    41.3310     2.5030 HW2           1 RES     
   11422 OW          47.5800    52.4220    12.3720 OW            1 RES     
   11423 HW1         47.0220    52.8880    13.0580 HW1           1 RES     
   11424 HW2         48.5060    52.8000    12.3830 HW2           1 RES     
   11425 OW          17.5490     9.8850    10.1860 OW            1 RES     
   11426 HW1         18.2830     9.7840    10.8570 HW1           1 RES     
   11427 HW2         16.6660     9.7530    10.6350 HW2           1 RES     
   11428 OW          33.3220    26.5240    13.3810 OW            1 RES     
   11429 HW1         32.5400    27.1050    13.1590 HW1           1 RES     
   11430 HW2         33.0890    25.9310    14.1520 HW2           1 RES     
   11431 OW          46.7060     3.5530     9.8840 OW            1 RES     
   11432 HW1         46.8280     4.5380     9.7730 HW1           1 RES     
   11433 HW2         45.8920     3.2590     9.3810 HW2           1 RES     
   11434 OW          48.4860     5.1590    13.7480 OW            1 RES     
   11435 HW1         49.3310     4.8800    14.2020 HW1           1 RES     
   11436 HW2         48.6770     5.9210    13.1290 HW2           1 RES     
   11437 OW          15.8400    11.5960    12.1000 OW            1 RES     
   11438 HW1         15.6520    12.5220    12.4270 HW1           1 RES     
   11439 HW2         16.8270    11.4710    12.0000 HW2           1 RES     
   11440 OW          39.6200    24.6210    10.9870 OW            1 RES     
   11441 HW1         39.4890    24.1720    10.1040 HW1           1 RES     
   11442 HW2         38.7520    24.6410    11.4840 HW2           1 RES     
   11443 OW           7.2770    27.8380     6.2340 OW            1 RES     
   11444 HW1          7.5330    27.8450     5.2680 HW1           1 RES     
   11445 HW2          8.0770    27.6130     6.7900 HW2           1 RES     
   11446 OW           2.6290    40.0100     6.4120 OW            1 RES     
   11447 HW1          3.2890    39.6590     7.0750 HW1           1 RES     
   11448 HW2          2.5050    40.9920     6.5530 HW2           1 RES     
   11449 OW          25.4310    49.5090    12.2440 OW            1 RES     
   11450 HW1         26.1930    49.0990    12.7430 HW1           1 RES     
   11451 HW2         24.7440    48.8090    12.0490 HW2           1 RES     
   11452 OW           7.5200    25.5320     5.3980 OW            1 RES     
   11453 HW1          8.4140    25.3820     5.8190 HW1           1 RES     
   11454 HW2          7.3950    24.8900     4.6410 HW2           1 RES     
   11455 OW          49.9570    13.0080     7.8250 OW            1 RES     
   11456 HW1         49.9520    13.4090     8.7410 HW1           1 RES     
   11457 HW2         50.8980    12.9550     7.4900 HW2           1 RES     
   11458 OW          47.5300    20.9680     4.1110 OW            1 RES     
   11459 HW1         46.7130    20.5420     4.5000 HW1           1 RES     
   11460 HW2         47.9840    21.5190     4.8120 HW2           1 RES     
   11461 OW          51.7370    39.0440     3.6770 OW            1 RES     
   11462 HW1         51.4750    38.9170     2.7210 HW1           1 RES     
   11463 HW2         52.6430    38.6510     3.8300 HW2           1 RES     
   11464 OW          14.5890    16.4840     4.5960 OW            1 RES     
   11465 HW1         14.3610    15.5200     4.4650 HW1           1 RES     
   11466 HW2         15.5810    16.5850     4.6730 HW2           1 RES     
   11467 OW           9.8550    28.5860     5.1810 OW            1 RES     
   11468 HW1          9.7010    27.6240     4.9610 HW1           1 RES     
   11469 HW2          9.2020    29.1530     4.6780 HW2           1 RES     
   11470 OW          40.9050    44.7870     8.0680 OW            1 RES     
   11471 HW1         40.4460    45.4310     7.4570 HW1           1 RES     
   11472 HW2         40.9990    43.9020     7.6120 HW2           1 RES     
   11473 OW          25.4840    39.5040     3.1870 OW            1 RES     
   11474 HW1         24.8930    39.9860     3.8330 HW1           1 RES     
   11475 HW2         24.9220    39.0430     2.5000 HW2           1 RES     
   11476 OW          41.6640     6.6980     4.9730 OW            1 RES     
   11477 HW1         42.6080     6.7080     4.6450 HW1           1 RES     
   11478 HW2         41.2110     5.8620     4.6600 HW2           1 RES     
   11479 OW          49.6940    50.0690    13.2540 OW            1 RES     
   11480 HW1         49.8920    50.3050    14.2050 HW1           1 RES     
   11481 HW2         49.5740    50.9070    12.7200 HW2           1 RES     
   11482 OW          29.9040    50.2100     3.4920 OW            1 RES     
   11483 HW1         30.5940    50.1530     4.2130 HW1           1 RES     
   11484 HW2         30.2690    49.8150     2.6490 HW2           1 RES     
   11485 OW          29.3720     9.4770     4.2210 OW            1 RES     
   11486 HW1         28.4840     9.1790     4.5710 HW1           1 RES     
   11487 HW2         30.1010     9.0740     4.7730 HW2           1 RES     
   11488 OW          51.2150    24.3220     6.4900 OW            1 RES     
   11489 HW1         51.6950    23.9060     7.2620 HW1           1 RES     
   11490 HW2         50.6230    23.6400     6.0590 HW2           1 RES     
   11491 OW           6.9030    23.6020     6.7950 OW            1 RES     
   11492 HW1          6.8710    22.6030     6.7920 HW1           1 RES     
   11493 HW2          6.1710    23.9600     6.2150 HW2           1 RES     
   11494 OW           3.1830    31.9880     8.7260 OW            1 RES     
   11495 HW1          2.5000    32.6010     8.3280 HW1           1 RES     
   11496 HW2          2.8060    31.5550     9.5450 HW2           1 RES     
   11497 OW          33.3430     5.4680    10.2400 OW            1 RES     
   11498 HW1         32.9900     6.1770    10.8500 HW1           1 RES     
   11499 HW2         33.7680     5.8950     9.4420 HW2           1 RES     
   11500 OW          32.5360    20.4470    11.8440 OW            1 RES     
   11501 HW1         33.5250    20.3360    11.9360 HW1           1 RES     
   11502 HW2         32.2620    20.2370    10.9060 HW2           1 RES     
   11503 OW          22.4900     9.9600     8.2240 OW            1 RES     
   11504 HW1         23.2090    10.4050     8.7560 HW1           1 RES     
   11505 HW2         22.7470     9.0100     8.0440 HW2           1 RES     
   11506 OW           7.2790    43.5830     3.4310 OW            1 RES     
   11507 HW1          6.9680    43.3100     2.5210 HW1           1 RES     
   11508 HW2          7.1740    44.5720     3.5370 HW2           1 RES     
   11509 OW          21.8230    28.1030     9.1210 OW            1 RES     
   11510 HW1         21.4440    28.6580     8.3820 HW1           1 RES     
   11511 HW2         22.5210    28.6280     9.6090 HW2           1 RES     
   11512 OW          25.6650    19.8510     4.3640 OW            1 RES     
   11513 HW1         25.7630    18.9390     3.9680 HW1           1 RES     
   11514 HW2         24.7480    20.2010     4.1740 HW2           1 RES     
   11515 OW          13.8990    37.2560     5.1460 OW            1 RES     
   11516 HW1         14.0790    37.9340     5.8570 HW1           1 RES     
   11517 HW2         12.9220    37.2480     4.9310 HW2           1 RES     
   11518 OW          33.0310    25.9180    10.3090 OW            1 RES     
   11519 HW1         32.6100    26.4050    11.0740 HW1           1 RES     
   11520 HW2         32.4840    25.1110    10.0850 HW2           1 RES     
   11521 OW          23.2070     6.0100    10.0850 OW            1 RES     
   11522 HW1         22.2400     5.7760    10.1820 HW1           1 RES     
   11523 HW2         23.7590     5.1780    10.1400 HW2           1 RES     
   11524 OW          30.6900    10.0190    11.6110 OW            1 RES     
   11525 HW1         29.9220    10.6180    11.8330 HW1           1 RES     
   11526 HW2         31.4510    10.2070    12.2340 HW2           1 RES     
   11527 OW          54.2480    24.5390     7.9110 OW            1 RES     
   11528 HW1         54.7850    24.1270     7.1760 HW1           1 RES     
   11529 HW2         54.7540    25.3090     8.3020 HW2           1 RES     
   11530 OW          50.1150    45.0040     8.1150 OW            1 RES     
   11531 HW1         50.2540    45.6660     7.3800 HW1           1 RES     
   11532 HW2         50.9970    44.6270     8.3980 HW2           1 RES     
   11533 OW          27.3990    19.5880     7.6020 OW            1 RES     
   11534 HW1         28.3070    19.8150     7.2510 HW1           1 RES     
   11535 HW2         27.4850    18.9310     8.3520 HW2           1 RES     
   11536 OW          40.0090    42.7160     9.4630 OW            1 RES     
   11537 HW1         39.5450    43.6000     9.4920 HW1           1 RES     
   11538 HW2         39.3440    41.9840     9.6090 HW2           1 RES     
   11539 OW          48.7830    29.8330     6.4010 OW            1 RES     
   11540 HW1         49.3370    29.0050     6.4630 HW1           1 RES     
   11541 HW2         47.8130    29.5880     6.4150 HW2           1 RES     
   11542 OW           5.9210    35.7260     9.3220 OW            1 RES     
   11543 HW1          6.2960    36.6220     9.5580 HW1           1 RES     
   11544 HW2          4.9420    35.7100     9.5270 HW2           1 RES     
   11545 OW          27.5450    27.9040     7.4960 OW            1 RES     
   11546 HW1         28.3450    28.4850     7.3510 HW1           1 RES     
   11547 HW2         26.7130    28.4490     7.3940 HW2           1 RES     
   11548 OW          14.2000    53.0430    12.8560 OW            1 RES     
   11549 HW1         14.4390    52.0720    12.8530 HW1           1 RES     
   11550 HW2         15.0180    53.5870    13.0420 HW2           1 RES     
   11551 OW          38.6840     5.0800     2.7440 OW            1 RES     
   11552 HW1         39.6540     5.2920     2.8500 HW1           1 RES     
   11553 HW2         38.5670     4.0920     2.6390 HW2           1 RES     
   11554 OW          24.6860     9.8960    10.5010 OW            1 RES     
   11555 HW1         24.5670     9.1050     9.9010 HW1           1 RES     
   11556 HW2         25.5080     9.7720    11.0570 HW2           1 RES     
   11557 OW          45.7460    36.5450     7.4680 OW            1 RES     
   11558 HW1         46.1870    35.6910     7.1900 HW1           1 RES     
   11559 HW2         44.8380    36.3470     7.8370 HW2           1 RES     
   11560 OW          35.8670    51.1920     9.0050 OW            1 RES     
   11561 HW1         36.1190    52.1560     8.9310 HW1           1 RES     
   11562 HW2         36.3330    50.6690     8.2910 HW2           1 RES     
   11563 OW          34.1690     9.4210    11.1390 OW            1 RES     
   11564 HW1         33.4920    10.1570    11.1480 HW1           1 RES     
   11565 HW2         34.9510     9.6790    11.7060 HW2           1 RES     
   11566 OW           3.3980    35.6550     7.1020 OW            1 RES     
   11567 HW1          3.9620    35.0380     7.6510 HW1           1 RES     
   11568 HW2          2.5020    35.2390     6.9480 HW2           1 RES     
   11569 OW           5.4490    33.3670     7.5860 OW            1 RES     
   11570 HW1          5.4970    33.7230     8.5190 HW1           1 RES     
   11571 HW2          6.3700    33.3230     7.1970 HW2           1 RES     
   11572 OW          26.5880    33.1220     5.0710 OW            1 RES     
   11573 HW1         26.8960    32.1780     5.1800 HW1           1 RES     
   11574 HW2         27.3800    33.7190     4.9370 HW2           1 RES     
   11575 OW          26.6990     7.9410    11.9160 OW            1 RES     
   11576 HW1         27.3350     8.3740    12.5540 HW1           1 RES     
   11577 HW2         27.2080     7.5560    11.1460 HW2           1 RES     
   11578 OW          40.8760     6.1890     7.1550 OW            1 RES     
   11579 HW1         40.5000     5.8830     8.0290 HW1           1 RES     
   11580 HW2         41.5500     5.5240     6.8300 HW2           1 RES     
   11581 OW          34.2620    26.8410     6.5600 OW            1 RES     
   11582 HW1         34.0050    26.2610     7.3320 HW1           1 RES     
   11583 HW2         34.9370    27.5160     6.8590 HW2           1 RES     
   11584 OW          18.6170    37.1140    13.3960 OW            1 RES     
   11585 HW1         18.0960    36.7610    12.6200 HW1           1 RES     
   11586 HW2         18.2040    37.9680    13.7150 HW2           1 RES     
   11587 OW          33.3290    36.6710     5.9220 OW            1 RES     
   11588 HW1         32.4750    36.1530     5.9440 HW1           1 RES     
   11589 HW2         33.9400    36.3380     6.6410 HW2           1 RES     
   11590 OW          33.0100    53.4660     3.5570 OW            1 RES     
   11591 HW1         32.5670    53.9160     4.3320 HW1           1 RES     
   11592 HW2         33.9980    53.6150     3.6040 HW2           1 RES     
   11593 OW          46.9080    51.2350     5.1660 OW            1 RES     
   11594 HW1         47.5170    50.4520     5.2810 HW1           1 RES     
   11595 HW2         46.3270    51.3280     5.9750 HW2           1 RES     
   11596 OW          46.5560    18.3150     2.7130 OW            1 RES     
   11597 HW1         46.2820    18.5620     3.6420 HW1           1 RES     
   11598 HW2         47.3770    17.7440     2.7480 HW2           1 RES     
   11599 OW          28.6510     2.5020     8.5460 OW            1 RES     
   11600 HW1         27.7320     2.6250     8.9180 HW1           1 RES     
   11601 HW2         29.3150     2.9540     9.1410 HW2           1 RES     
   11602 OW          43.4480    33.5590     8.3020 OW            1 RES     
   11603 HW1         44.2490    33.0300     8.0230 HW1           1 RES     
   11604 HW2         43.6420    34.5350     8.2040 HW2           1 RES     
   11605 OW          42.0640    44.6250     9.9510 OW            1 RES     
   11606 HW1         42.4510    45.4270     9.4980 HW1           1 RES     
   11607 HW2         42.7450    43.8920     9.9720 HW2           1 RES     
   11608 OW          20.0440    38.5780     9.6330 OW            1 RES     
   11609 HW1         19.7900    37.9160     8.9290 HW1           1 RES     
   11610 HW2         20.7270    38.1730    10.2420 HW2           1 RES     
   11611 OW          33.2240    32.0350     6.8660 OW            1 RES     
   11612 HW1         32.4010    32.5470     7.1090 HW1           1 RES     
   11613 HW2         32.9670    31.1230     6.5440 HW2           1 RES     
   11614 OW          11.3720    35.6280     9.3030 OW            1 RES     
   11615 HW1         11.3680    36.6270     9.3320 HW1           1 RES     
   11616 HW2         11.8910    35.2740    10.0820 HW2           1 RES     
   11617 OW          22.4830    36.3210     6.8990 OW            1 RES     
   11618 HW1         21.7750    36.4030     7.5990 HW1           1 RES     
   11619 HW2         23.0300    35.5020     7.0730 HW2           1 RES     
   11620 OW          40.3020    38.3100    12.8760 OW            1 RES     
   11621 HW1         41.2900    38.4480    12.8080 HW1           1 RES     
   11622 HW2         40.0250    38.3440    13.8360 HW2           1 RES     
   11623 OW           7.4860    41.2130    12.2670 OW            1 RES     
   11624 HW1          6.9190    40.4720    12.6250 HW1           1 RES     
   11625 HW2          7.1510    42.0880    12.6170 HW2           1 RES     
   11626 OW          27.8290    36.8450    10.9710 OW            1 RES     
   11627 HW1         27.9790    37.0860    11.9290 HW1           1 RES     
   11628 HW2         27.6520    35.8640    10.8970 HW2           1 RES     
   11629 OW          24.7060    35.5610     9.0640 OW            1 RES     
   11630 HW1         24.9280    36.2350     9.7680 HW1           1 RES     
   11631 HW2         23.7450    35.2980     9.1440 HW2           1 RES     
   11632 OW          22.9130    52.1080     9.9330 OW            1 RES     
   11633 HW1         22.2910    52.6580    10.4890 HW1           1 RES     
   11634 HW2         23.7650    52.6100     9.7890 HW2           1 RES     
   11635 OW           8.5470    34.7170    10.6270 OW            1 RES     
   11636 HW1          9.1000    35.3520    10.0880 HW1           1 RES     
   11637 HW2          7.6190    34.6850    10.2570 HW2           1 RES     
   11638 OW          52.8650    30.3450    14.0700 OW            1 RES     
   11639 HW1         53.5720    30.5130    13.3830 HW1           1 RES     
   11640 HW2         52.7580    29.3600    14.2040 HW2           1 RES     
   11641 OW          10.4710    52.3670     5.4960 OW            1 RES     
   11642 HW1         11.1170    52.6750     6.1930 HW1           1 RES     
   11643 HW2         10.1410    51.4510     5.7280 HW2           1 RES     
   11644 OW          16.2500    49.8350     9.7040 OW            1 RES     
   11645 HW1         16.6200    49.6920    10.6210 HW1           1 RES     
   11646 HW2         16.1590    48.9530     9.2400 HW2           1 RES     
   11647 OW          45.1050    40.8590    12.8290 OW            1 RES     
   11648 HW1         46.0750    40.6260    12.8930 HW1           1 RES     
   11649 HW2         44.6280    40.1630    12.2920 HW2           1 RES     
   11650 OW          29.7800    32.1120    11.8550 OW            1 RES     
   11651 HW1         30.4170    31.3900    11.5880 HW1           1 RES     
   11652 HW2         29.7080    32.7830    11.1160 HW2           1 RES     
   11653 OW          41.0200    21.2150     9.1720 OW            1 RES     
   11654 HW1         41.8780    21.7280     9.1720 HW1           1 RES     
   11655 HW2         40.2500    21.8530     9.1740 HW2           1 RES     
   11656 OW          39.8190    20.4400     2.5030 OW            1 RES     
   11657 HW1         40.5050    20.7280     3.1700 HW1           1 RES     
   11658 HW2         39.5760    19.4830     2.6670 HW2           1 RES     
   11659 OW          37.7750    54.4900    12.2690 OW            1 RES     
   11660 HW1         37.5610    53.5740    11.9330 HW1           1 RES     
   11661 HW2         38.6550    54.7860    11.8960 HW2           1 RES     
   11662 OW          31.1480    23.0560     8.5960 OW            1 RES     
   11663 HW1         30.9840    23.5880     9.4260 HW1           1 RES     
   11664 HW2         30.2950    22.9650     8.0840 HW2           1 RES     
   11665 OW          12.9110    28.2660     9.7860 OW            1 RES     
   11666 HW1         12.0490    28.7190    10.0090 HW1           1 RES     
   11667 HW2         13.4820    28.8830     9.2430 HW2           1 RES     
   11668 OW          36.5150    47.6450     2.8900 OW            1 RES     
   11669 HW1         36.1500    48.4900     2.5010 HW1           1 RES     
   11670 HW2         35.9530    47.3670     3.6690 HW2           1 RES     
   11671 OW          39.7940    46.2510    13.3600 OW            1 RES     
   11672 HW1         38.9500    45.8290    13.6900 HW1           1 RES     
   11673 HW2         39.5760    46.9270    12.6560 HW2           1 RES     
   11674 OW           2.5040    13.6630     7.7040 OW            1 RES     
   11675 HW1          3.1370    14.3170     8.1150 HW1           1 RES     
   11676 HW2          3.0180    12.8950     7.3220 HW2           1 RES     
   11677 OW          39.8790    14.8590    10.6350 OW            1 RES     
   11678 HW1         40.6310    14.2280    10.8220 HW1           1 RES     
   11679 HW2         39.2230    14.8290    11.3900 HW2           1 RES     
   11680 OW           2.5000    16.6640    10.3120 OW            1 RES     
   11681 HW1          2.8190    16.0100    10.9970 HW1           1 RES     
   11682 HW2          2.5420    16.2450     9.4050 HW2           1 RES     
   11683 OW          17.7530    21.2810    13.7210 OW            1 RES     
   11684 HW1         18.0200    20.4490    14.2050 HW1           1 RES     
   11685 HW2         16.7660    21.4170    13.8080 HW2           1 RES     
   11686 OW          24.7820    47.9040    14.0540 OW            1 RES     
   11687 HW1         25.6520    47.4340    14.2030 HW1           1 RES     
   11688 HW2         24.0280    47.2630    14.1970 HW2           1 RES     
   11689 OW          48.8970    37.7060     2.5060 OW            1 RES     
   11690 HW1         48.1310    37.0640     2.5050 HW1           1 RES     
   11691 HW2         49.7580    37.1970     2.5250 HW2           1 RES     
   11692 OW           3.2620    10.9460     8.4700 OW            1 RES     
   11693 HW1          2.5080    10.2940     8.5450 HW1           1 RES     
   11694 HW2          4.1300    10.4510     8.4340 HW2           1 RES     
   11695 OW          34.0360    20.7250     3.9340 OW            1 RES     
   11696 HW1         34.9680    20.3890     3.8000 HW1           1 RES     
   11697 HW2         33.4130    19.9490     4.0340 HW2           1 RES     
   11698 OW          42.7140    21.9950     5.0150 OW            1 RES     
   11699 HW1         42.3460    21.6860     5.8910 HW1           1 RES     
   11700 HW2         42.0400    21.8340     4.2940 HW2           1 RES     
   11701 OW          11.0910     8.3060     9.9160 OW            1 RES     
   11702 HW1         10.7900     7.4590    10.3530 HW1           1 RES     
   11703 HW2         11.1890     8.1570     8.9310 HW2           1 RES     
   11704 OW          22.8370    54.7840    10.3550 OW            1 RES     
   11705 HW1         22.4770    54.7160    11.2850 HW1           1 RES     
   11706 HW2         22.0860    54.7010     9.7000 HW2           1 RES     
   11707 OW          35.2450    24.7800     8.3860 OW            1 RES     
   11708 HW1         36.1440    25.0710     8.0590 HW1           1 RES     
   11709 HW2         35.0080    25.2920     9.2110 HW2           1 RES     
   11710 OW          14.1640    40.6340     8.8310 OW            1 RES     
   11711 HW1         15.0790    40.9300     8.5600 HW1           1 RES     
   11712 HW2         13.6630    41.4080     9.2180 HW2           1 RES     
   11713 OW           7.5200    17.8030     3.7860 OW            1 RES     
   11714 HW1          7.4550    17.7290     2.7910 HW1           1 RES     
   11715 HW2          6.6510    18.1350     4.1530 HW2           1 RES     
   11716 OW          47.2950     7.7040     3.5170 OW            1 RES     
   11717 HW1         47.0430     8.4130     2.8590 HW1           1 RES     
   11718 HW2         46.5440     7.5670     4.1640 HW2           1 RES     
   11719 OW          33.9940     8.0280     8.9440 OW            1 RES     
   11720 HW1         33.3020     8.0360     9.6650 HW1           1 RES     
   11721 HW2         34.0570     8.9370     8.5320 HW2           1 RES     
   11722 OW          45.6780    33.8700     5.6100 OW            1 RES     
   11723 HW1         45.6270    32.8900     5.4200 HW1           1 RES     
   11724 HW2         46.6360    34.1550     5.6410 HW2           1 RES     
   11725 OW           2.8810    10.0240    10.6960 OW            1 RES     
   11726 HW1          3.8340     9.7580    10.5540 HW1           1 RES     
   11727 HW2          2.5000     9.5040    11.4610 HW2           1 RES     
   11728 OW          25.3530    33.3700     8.3700 OW            1 RES     
   11729 HW1         25.3630    32.3810     8.5130 HW1           1 RES     
   11730 HW2         26.2640    33.6770     8.0940 HW2           1 RES     
   11731 OW          52.9350    12.4450     5.0610 OW            1 RES     
   11732 HW1         52.4500    11.5950     4.8580 HW1           1 RES     
   11733 HW2         52.2910    13.2090     5.0420 HW2           1 RES     
   11734 OW          23.6200    13.3470     8.8850 OW            1 RES     
   11735 HW1         23.4740    13.4550     7.9020 HW1           1 RES     
   11736 HW2         23.9990    12.4390     9.0680 HW2           1 RES     
   11737 OW          44.6500    27.9200    11.9570 OW            1 RES     
   11738 HW1         43.9420    28.6120    12.0940 HW1           1 RES     
   11739 HW2         44.7870    27.7720    10.9770 HW2           1 RES     
   11740 OW          41.0400     8.4650    13.0550 OW            1 RES     
   11741 HW1         40.6880     7.6120    12.6720 HW1           1 RES     
   11742 HW2         41.8320     8.2690    13.6340 HW2           1 RES     
   11743 OW          52.3290    46.0040     9.4950 OW            1 RES     
   11744 HW1         53.2640    45.7820     9.7680 HW1           1 RES     
   11745 HW2         52.0360    46.8420     9.9560 HW2           1 RES     
   11746 OW          36.8450    14.2760     3.2830 OW            1 RES     
   11747 HW1         37.2730    14.7290     2.5010 HW1           1 RES     
   11748 HW2         35.9030    14.5990     3.3810 HW2           1 RES     
   11749 OW          32.6540    45.9910    13.3490 OW            1 RES     
   11750 HW1         32.1210    46.7000    13.8090 HW1           1 RES     
   11751 HW2         32.1040    45.1590    13.2680 HW2           1 RES     
   11752 OW          43.5490    32.8850    10.8840 OW            1 RES     
   11753 HW1         44.1970    32.5290    10.2110 HW1           1 RES     
   11754 HW2         42.9290    33.5330    10.4400 HW2           1 RES     
   11755 OW          44.6550    24.4400     2.5100 OW            1 RES     
   11756 HW1         45.6180    24.1840     2.5970 HW1           1 RES     
   11757 HW2         44.5140    25.3480     2.9040 HW2           1 RES     
   11758 OW          50.6580    32.6350     5.2060 OW            1 RES     
   11759 HW1         49.7700    32.3010     5.5180 HW1           1 RES     
   11760 HW2         51.1720    31.8820     4.7940 HW2           1 RES     
   11761 OW          42.8350    42.2610    13.6210 OW            1 RES     
   11762 HW1         43.6090    42.0200    14.2050 HW1           1 RES     
   11763 HW2         42.5250    41.4490    13.1250 HW2           1 RES     
   11764 OW          53.4690    53.2280     9.2060 OW            1 RES     
   11765 HW1         52.7780    52.9780     9.8840 HW1           1 RES     
   11766 HW2         54.3280    52.7610     9.4180 HW2           1 RES     
   11767 OW          48.5590    34.3520     3.3180 OW            1 RES     
   11768 HW1         49.0880    34.9300     2.6980 HW1           1 RES     
   11769 HW2         49.1280    34.0900     4.0980 HW2           1 RES     
   11770 OW          30.7980    29.6100     7.3980 OW            1 RES     
   11771 HW1         30.4270    28.8660     7.9540 HW1           1 RES     
   11772 HW2         31.4190    30.1640     7.9530 HW2           1 RES     
   11773 OW           6.0050     7.4640    10.2600 OW            1 RES     
   11774 HW1          6.8600     7.4910     9.7440 HW1           1 RES     
   11775 HW2          5.5380     8.3460    10.1790 HW2           1 RES     
   11776 OW          19.8970    22.3150     3.1450 OW            1 RES     
   11777 HW1         19.6790    23.2870     3.2250 HW1           1 RES     
   11778 HW2         19.0520    21.7810     3.1590 HW2           1 RES     
   11779 OW           9.7490    31.7350     4.8150 OW            1 RES     
   11780 HW1          8.8620    31.4760     5.1940 HW1           1 RES     
   11781 HW2         10.4360    31.0570     5.0780 HW2           1 RES     
   11782 OW          30.1990    39.6290     4.8700 OW            1 RES     
   11783 HW1         31.1410    39.3800     4.6490 HW1           1 RES     
   11784 HW2         30.1960    40.4510     5.4390 HW2           1 RES     
   11785 OW          51.4730    16.2590    12.0030 OW            1 RES     
   11786 HW1         51.5170    16.7830    12.8530 HW1           1 RES     
   11787 HW2         52.3950    15.9830    11.7320 HW2           1 RES     
   11788 OW          36.0620    26.9040     4.5970 OW            1 RES     
   11789 HW1         35.3820    27.6270     4.7070 HW1           1 RES     
   11790 HW2         35.6480    26.1240     4.1260 HW2           1 RES     
   11791 OW          23.2590     2.6750    11.8830 OW            1 RES     
   11792 HW1         23.1110     3.6530    11.7400 HW1           1 RES     
   11793 HW2         24.2370     2.5000    12.0040 HW2           1 RES     
   11794 OW          42.5130    31.0360    10.2940 OW            1 RES     
   11795 HW1         41.8300    31.6850     9.9610 HW1           1 RES     
   11796 HW2         42.4660    30.9820    11.2910 HW2           1 RES     
   11797 OW          46.3830    33.7430     2.6080 OW            1 RES     
   11798 HW1         46.5510    34.7220     2.5000 HW1           1 RES     
   11799 HW2         45.4770    33.6020     3.0090 HW2           1 RES     
   11800 OW           5.1570    11.8410     3.3110 OW            1 RES     
   11801 HW1          4.9980    12.4050     2.5020 HW1           1 RES     
   11802 HW2          4.6110    12.1900     4.0730 HW2           1 RES     
   11803 OW           5.3150    38.1650    11.3140 OW            1 RES     
   11804 HW1          5.3330    37.1760    11.4570 HW1           1 RES     
   11805 HW2          6.2470    38.5260    11.3590 HW2           1 RES     
   11806 OW          40.7150     2.8970     6.4280 OW            1 RES     
   11807 HW1         41.0180     2.5000     7.2930 HW1           1 RES     
   11808 HW2         41.5010     3.2840     5.9440 HW2           1 RES     
   11809 OW          24.4440    47.6460     8.4550 OW            1 RES     
   11810 HW1         25.2170    47.3050     8.9880 HW1           1 RES     
   11811 HW2         23.7780    48.0710     9.0670 HW2           1 RES     
   11812 OW          35.6110    45.8550     7.1370 OW            1 RES     
   11813 HW1         36.4040    45.2590     7.2560 HW1           1 RES     
   11814 HW2         34.8330    45.4830     7.6440 HW2           1 RES     
   11815 OW           5.5020    45.7060     2.6670 OW            1 RES     
   11816 HW1          6.0330    46.5430     2.5430 HW1           1 RES     
   11817 HW2          4.6780    45.9090     3.1980 HW2           1 RES     
   11818 OW           9.5850    36.9530     2.5800 OW            1 RES     
   11819 HW1          9.5670    37.9390     2.7400 HW1           1 RES     
   11820 HW2         10.5330    36.6430     2.5030 HW2           1 RES     
   11821 OW          13.2700    34.4830    13.5400 OW            1 RES     
   11822 HW1         12.5820    34.9800    14.0670 HW1           1 RES     
   11823 HW2         13.9280    35.1310    13.1550 HW2           1 RES     
   11824 OW          14.6550    18.1440    14.2050 OW            1 RES     
   11825 HW1         14.9770    19.0820    14.0890 HW1           1 RES     
   11826 HW2         13.6550    18.1310    14.2010 HW2           1 RES     
   11827 OW          42.6240    43.7730     3.1890 OW            1 RES     
   11828 HW1         43.3910    43.3160     2.7390 HW1           1 RES     
   11829 HW2         41.9620    44.0700     2.5000 HW2           1 RES     
   11830 OW          28.3110    30.1000    12.8110 OW            1 RES     
   11831 HW1         28.0550    30.7720    12.1160 HW1           1 RES     
   11832 HW2         29.2690    30.2320    13.0660 HW2           1 RES     
   11833 OW          10.4910     7.7220     3.1490 OW            1 RES     
   11834 HW1         10.9480     8.3290     2.5000 HW1           1 RES     
   11835 HW2          9.7570     7.2280     2.6830 HW2           1 RES     
   11836 OW           8.7640     3.7290    10.5120 OW            1 RES     
   11837 HW1          8.9260     3.9430    11.4740 HW1           1 RES     
   11838 HW2          9.4760     4.1520     9.9510 HW2           1 RES     
   11839 OW          37.9080    26.6530     2.6650 OW            1 RES     
   11840 HW1         38.3640    27.4740     3.0060 HW1           1 RES     
   11841 HW2         36.9420    26.8510     2.5000 HW2           1 RES     
   11842 OW          12.4330    20.8350    13.6480 OW            1 RES     
   11843 HW1         12.2970    20.2380    12.8580 HW1           1 RES     
   11844 HW2         11.5480    21.1820    13.9600 HW2           1 RES     
   11845 OW          10.3530    32.4200     9.0930 OW            1 RES     
   11846 HW1         10.6870    31.4850     9.2080 HW1           1 RES     
   11847 HW2          9.3670    32.4040     8.9250 HW2           1 RES     
   11848 OW          20.3400    48.0380    14.2050 OW            1 RES     
   11849 HW1         20.7880    48.9280    14.1220 HW1           1 RES     
   11850 HW2         19.3480    48.1630    14.2020 HW2           1 RES     
   11851 OW          34.9380    13.9150     5.5060 OW            1 RES     
   11852 HW1         34.6240    14.7990     5.1610 HW1           1 RES     
   11853 HW2         35.9370    13.8740     5.4590 HW2           1 RES     
   11854 OW          50.4990    25.3540     4.6840 OW            1 RES     
   11855 HW1         49.5440    25.4970     4.4280 HW1           1 RES     
   11856 HW2         51.0180    26.1940     4.5220 HW2           1 RES     
   11857 OW           8.8800    34.8780     7.9510 OW            1 RES     
   11858 HW1          9.8480    34.6310     7.9700 HW1           1 RES     
   11859 HW2          8.3240    34.0480     7.9010 HW2           1 RES     
   11860 OW          35.7890    33.8760    12.1380 OW            1 RES     
   11861 HW1         35.5450    33.8800    13.1070 HW1           1 RES     
   11862 HW2         36.6930    34.2860    12.0200 HW2           1 RES     
   11863 OW          11.4190    40.6000     8.7460 OW            1 RES     
   11864 HW1         10.6220    40.4000     8.1780 HW1           1 RES     
   11865 HW2         11.2880    40.2060     9.6560 HW2           1 RES     
   11866 OW          41.3340    24.2100     8.0040 OW            1 RES     
   11867 HW1         42.1920    23.8510     8.3700 HW1           1 RES     
   11868 HW2         40.9600    24.8900     8.6350 HW2           1 RES     
   11869 OW          27.2440    51.6100     8.2600 OW            1 RES     
   11870 HW1         26.6490    51.2420     8.9730 HW1           1 RES     
   11871 HW2         27.0700    51.1300     7.4000 HW2           1 RES     
   11872 OW           3.8810    41.1630    13.3110 OW            1 RES     
   11873 HW1          4.4750    41.7840    13.8200 HW1           1 RES     
   11874 HW2          2.9820    41.1290    13.7470 HW2           1 RES     
   11875 OW          42.9900    41.7880     9.3800 OW            1 RES     
   11876 HW1         43.9870    41.7970     9.4480 HW1           1 RES     
   11877 HW2         42.6150    41.1630    10.0660 HW2           1 RES     
   11878 OW          34.8110    51.6170    14.2050 OW            1 RES     
   11879 HW1         35.3230    52.4470    13.9860 HW1           1 RES     
   11880 HW2         35.3890    50.8170    14.0470 HW2           1 RES     
   11881 OW          13.8250    14.1670     6.5280 OW            1 RES     
   11882 HW1         12.9600    14.5840     6.2530 HW1           1 RES     
   11883 HW2         14.4970    14.8840     6.7170 HW2           1 RES     
   11884 OW          33.0150    44.3480     9.8350 OW            1 RES     
   11885 HW1         33.0580    44.8230     8.9570 HW1           1 RES     
   11886 HW2         32.1080    44.4710    10.2380 HW2           1 RES     
   11887 OW          41.0770    21.7130    11.6750 OW            1 RES     
   11888 HW1         40.9520    20.9910    12.3550 HW1           1 RES     
   11889 HW2         40.1830    22.0380    11.3650 HW2           1 RES     
   11890 OW          43.4250    14.6340     6.5730 OW            1 RES     
   11891 HW1         43.7850    14.4150     7.4790 HW1           1 RES     
   11892 HW2         44.1670    14.9650     5.9900 HW2           1 RES     
   11893 OW           3.4940    49.4670    13.6360 OW            1 RES     
   11894 HW1          4.4490    49.7600    13.6360 HW1           1 RES     
   11895 HW2          3.2370    49.1680    12.7170 HW2           1 RES     
   11896 OW          49.0710     6.7230     4.7110 OW            1 RES     
   11897 HW1         49.7000     6.2010     5.2860 HW1           1 RES     
   11898 HW2         48.7380     7.5190     5.2170 HW2           1 RES     
   11899 OW          10.4440    47.0290     8.4370 OW            1 RES     
   11900 HW1          9.8990    46.2130     8.6270 HW1           1 RES     
   11901 HW2         11.4050    46.8440     8.6420 HW2           1 RES     
   11902 OW          16.0500    45.9250     7.5830 OW            1 RES     
   11903 HW1         16.2250    45.8910     8.5660 HW1           1 RES     
   11904 HW2         16.4550    46.7550     7.1990 HW2           1 RES     
   11905 OW          39.7470    31.2490     7.0630 OW            1 RES     
   11906 HW1         40.5670    31.6260     7.4920 HW1           1 RES     
   11907 HW2         39.1100    31.9910     6.8490 HW2           1 RES     
   11908 OW          18.4370    32.8760    10.0030 OW            1 RES     
   11909 HW1         19.2110    32.7260    10.6170 HW1           1 RES     
   11910 HW2         17.6360    33.1470    10.5360 HW2           1 RES     
   11911 OW          53.9420    40.3250     3.0790 OW            1 RES     
   11912 HW1         54.7580    40.3210     2.5030 HW1           1 RES     
   11913 HW2         53.1260    40.3560     2.5020 HW2           1 RES     
   11914 OW           5.0120    31.3450     5.7100 OW            1 RES     
   11915 HW1          5.1930    30.4420     5.3220 HW1           1 RES     
   11916 HW2          5.8160    31.9280     5.5890 HW2           1 RES     
   11917 OW          47.7860    27.5330     7.2010 OW            1 RES     
   11918 HW1         48.6430    27.0220     7.1540 HW1           1 RES     
   11919 HW2         47.0150    26.9040     7.0980 HW2           1 RES     
   11920 OW          26.2900    49.7580     3.2220 OW            1 RES     
   11921 HW1         25.8770    50.6500     3.0440 HW1           1 RES     
   11922 HW2         25.7680    49.0480     2.7500 HW2           1 RES     
   11923 OW          51.1170    21.2140     4.0560 OW            1 RES     
   11924 HW1         50.1760    21.3850     4.3440 HW1           1 RES     
   11925 HW2         51.1360    21.0200     3.0750 HW2           1 RES     
   11926 OW          27.4770    33.1540    10.0430 OW            1 RES     
   11927 HW1         27.9330    32.2730     9.9190 HW1           1 RES     
   11928 HW2         28.1550    33.8890    10.0080 HW2           1 RES     
   11929 OW          13.4990    41.7940     6.8020 OW            1 RES     
   11930 HW1         13.8260    42.5620     7.3520 HW1           1 RES     
   11931 HW2         12.5860    41.5280     7.1100 HW2           1 RES     
   11932 OW          41.9140    51.2680     7.7260 OW            1 RES     
   11933 HW1         41.2380    51.7630     7.1810 HW1           1 RES     
   11934 HW2         42.7680    51.7870     7.7510 HW2           1 RES     
   11935 OW          45.2330     6.0260    10.9780 OW            1 RES     
   11936 HW1         44.3860     5.9480    10.4540 HW1           1 RES     
   11937 HW2         45.9400     6.4470    10.4100 HW2           1 RES     
   11938 OW          48.1680    18.7480     5.3930 OW            1 RES     
   11939 HW1         48.7860    19.4980     5.1600 HW1           1 RES     
   11940 HW2         47.4850    19.0700     6.0480 HW2           1 RES     
   11941 OW          46.3130    31.2400     9.7080 OW            1 RES     
   11942 HW1         46.1380    31.6940     8.8340 HW1           1 RES     
   11943 HW2         46.8220    30.3950     9.5490 HW2           1 RES     
   11944 OW          18.3380    39.0680     2.5080 OW            1 RES     
   11945 HW1         19.3370    39.1030     2.5000 HW1           1 RES     
   11946 HW2         18.0380    38.1130     2.5090 HW2           1 RES     
   11947 OW          26.4030    22.6000    11.3800 OW            1 RES     
   11948 HW1         26.3290    22.8380    10.4120 HW1           1 RES     
   11949 HW2         25.9020    21.7520    11.5540 HW2           1 RES     
   11950 OW          44.5360    48.6900     5.9940 OW            1 RES     
   11951 HW1         45.0230    49.5590     6.0760 HW1           1 RES     
   11952 HW2         45.0060    48.1050     5.3320 HW2           1 RES     
   11953 OW           2.5000    24.5210     5.2310 OW            1 RES     
   11954 HW1          3.1360    24.0510     4.6210 HW1           1 RES     
   11955 HW2          2.5130    24.0820     6.1300 HW2           1 RES     
   11956 OW          33.1980    23.1330     9.4420 OW            1 RES     
   11957 HW1         34.0950    23.2530     9.8660 HW1           1 RES     
   11958 HW2         33.0700    22.1710     9.2000 HW2           1 RES     
   11959 OW          53.8070    29.6500     4.0770 OW            1 RES     
   11960 HW1         54.7700    29.9070     3.9950 HW1           1 RES     
   11961 HW2         53.2510    30.4730     4.1980 HW2           1 RES     
   11962 OW          23.2470     2.6360     6.2770 OW            1 RES     
   11963 HW1         23.2270     3.2380     5.4800 HW1           1 RES     
   11964 HW2         22.3190     2.5160     6.6290 HW2           1 RES     
   11965 OW          11.7400     7.5220     5.3580 OW            1 RES     
   11966 HW1         12.4500     6.8840     5.6540 HW1           1 RES     
   11967 HW2         11.5580     8.1810     6.0870 HW2           1 RES     
   11968 OW          11.1900    37.5130    11.4610 OW            1 RES     
   11969 HW1         10.6490    36.6750    11.4100 HW1           1 RES     
   11970 HW2         10.8400    38.1780    10.8010 HW2           1 RES     
   11971 OW           5.6690    47.5920    13.2580 OW            1 RES     
   11972 HW1          6.5400    48.0720    13.1640 HW1           1 RES     
   11973 HW2          5.0340    47.9100    12.5530 HW2           1 RES     
   11974 OW          47.9560    24.1800     5.1920 OW            1 RES     
   11975 HW1         47.1780    23.5540     5.1420 HW1           1 RES     
   11976 HW2         47.6440    25.0770     5.5050 HW2           1 RES     
   11977 OW          40.5170    26.4070     5.9110 OW            1 RES     
   11978 HW1         39.7720    25.8210     6.2260 HW1           1 RES     
   11979 HW2         41.0150    26.7690     6.6990 HW2           1 RES     
   11980 OW           6.5940    50.2160    14.2010 OW            1 RES     
   11981 HW1          7.5040    49.8170    14.0940 HW1           1 RES     
   11982 HW2          6.6370    51.1980    14.0200 HW2           1 RES     
   11983 OW          28.4190    22.9040    13.0560 OW            1 RES     
   11984 HW1         28.2900    23.7840    12.6010 HW1           1 RES     
   11985 HW2         28.4610    23.0430    14.0460 HW2           1 RES     
   11986 OW          32.2880    18.9610     8.7410 OW            1 RES     
   11987 HW1         31.5740    18.7730     9.4140 HW1           1 RES     
   11988 HW2         31.8670    19.1980     7.8650 HW2           1 RES     
   11989 OW          14.6560    33.2520    10.0200 OW            1 RES     
   11990 HW1         14.3830    33.1860     9.0610 HW1           1 RES     
   11991 HW2         13.9660    33.7660    10.5300 HW2           1 RES     
   11992 OW          30.7240     5.6960     9.5380 OW            1 RES     
   11993 HW1         30.7790     4.7110     9.6980 HW1           1 RES     
   11994 HW2         29.7740     5.9960     9.6190 HW2           1 RES     
   11995 OW          42.7340    24.1630     4.6140 OW            1 RES     
   11996 HW1         42.6320    23.8580     3.6680 HW1           1 RES     
   11997 HW2         42.2350    25.0200     4.7450 HW2           1 RES     
   11998 OW          25.7800    33.2150     2.9460 OW            1 RES     
   11999 HW1         25.9230    34.1570     3.2470 HW1           1 RES     
   12000 HW2         26.6410    32.8380     2.6050 HW2           1 RES     
   12001 OW          24.2490    54.0050     7.8910 OW            1 RES     
   12002 HW1         23.3050    54.3320     7.9060 HW1           1 RES     
   12003 HW2         24.8740    54.7860     7.8910 HW2           1 RES     
   12004 OW          18.9200     9.6040     2.5640 OW            1 RES     
   12005 HW1         18.9900    10.5540     2.8670 HW1           1 RES     
   12006 HW2         19.8350     9.2050     2.5030 HW2           1 RES     
   12007 OW           9.3900    47.2160    11.8040 OW            1 RES     
   12008 HW1          9.2620    48.2070    11.8310 HW1           1 RES     
   12009 HW2          8.5430    46.7620    12.0820 HW2           1 RES     
   12010 OW          30.7070    39.0430     2.5160 OW            1 RES     
   12011 HW1         31.3210    39.8320     2.5030 HW1           1 RES     
   12012 HW2         29.7590    39.3590     2.5450 HW2           1 RES     
   12013 OW           5.2360    51.2210    11.9610 OW            1 RES     
   12014 HW1          4.7560    50.4390    11.5660 HW1           1 RES     
   12015 HW2          4.6110    51.9980    12.0290 HW2           1 RES     
   12016 OW          41.6810     6.9730    10.3710 OW            1 RES     
   12017 HW1         41.6260     5.9780    10.2920 HW1           1 RES     
   12018 HW2         42.6120     7.2380    10.6240 HW2           1 RES     
   12019 OW          36.8270    35.4620     8.3040 OW            1 RES     
   12020 HW1         36.3740    34.5840     8.4550 HW1           1 RES     
   12021 HW2         37.8180    35.3240     8.2710 HW2           1 RES     
   12022 OW          29.5350     8.3310    12.4220 OW            1 RES     
   12023 HW1         29.6050     8.0110    11.4780 HW1           1 RES     
   12024 HW2         30.4140     8.2080    12.8830 HW2           1 RES     
   12025 OW          13.9830     8.4170    10.0920 OW            1 RES     
   12026 HW1         14.8310     8.8270     9.7600 HW1           1 RES     
   12027 HW2         13.2130     8.7570     9.5510 HW2           1 RES     
   12028 OW          44.5350    19.6330     2.7340 OW            1 RES     
   12029 HW1         44.2560    18.6750     2.7920 HW1           1 RES     
   12030 HW2         44.1760    20.1330     3.5230 HW2           1 RES     
   12031 OW          45.4270    28.4180     4.8900 OW            1 RES     
   12032 HW1         46.1750    27.9420     5.3490 HW1           1 RES     
   12033 HW2         45.6320    28.5000     3.9140 HW2           1 RES     
   12034 OW          43.8720    35.2530    13.0340 OW            1 RES     
   12035 HW1         43.3720    35.2730    12.1690 HW1           1 RES     
   12036 HW2         44.3890    36.1030    13.1400 HW2           1 RES     
   12037 OW          19.7460    26.3510     2.5010 OW            1 RES     
   12038 HW1         18.8430    25.9230     2.5000 HW1           1 RES     
   12039 HW2         19.6440    27.3460     2.5030 HW2           1 RES     
   12040 OW           3.9000     7.5140     4.4490 OW            1 RES     
   12041 HW1          3.5680     8.0090     3.6470 HW1           1 RES     
   12042 HW2          3.1400     7.3490     5.0780 HW2           1 RES     
   12043 OW           3.0120    39.0540     9.7510 OW            1 RES     
   12044 HW1          2.5000    38.7180    10.5400 HW1           1 RES     
   12045 HW2          2.5000    39.7920     9.3100 HW2           1 RES     
   12046 OW          42.1940     6.4290     2.5030 OW            1 RES     
   12047 HW1         41.8280     5.5020     2.5790 HW1           1 RES     
   12048 HW2         43.1930     6.3980     2.5390 HW2           1 RES     
   12049 OW          19.9880    30.4310    13.0980 OW            1 RES     
   12050 HW1         19.3870    30.7560    12.3690 HW1           1 RES     
   12051 HW2         20.2680    29.4900    12.9050 HW2           1 RES     
   12052 OW          35.1930    35.2920     4.9370 OW            1 RES     
   12053 HW1         36.0680    34.9890     5.3120 HW1           1 RES     
   12054 HW2         35.2000    36.2860     4.8310 HW2           1 RES     
   12055 OW          39.7760    45.4450     4.3690 OW            1 RES     
   12056 HW1         38.9100    45.0440     4.6660 HW1           1 RES     
   12057 HW2         40.4540    44.7200     4.2450 HW2           1 RES     
   12058 OW           5.8910    14.0560     8.1080 OW            1 RES     
   12059 HW1          5.1960    13.4700     7.6930 HW1           1 RES     
   12060 HW2          6.7770    13.5910     8.0860 HW2           1 RES     
   12061 OW          14.6310    31.7330    13.8310 OW            1 RES     
   12062 HW1         14.2890    31.6380    12.8970 HW1           1 RES     
   12063 HW2         14.3450    32.6150    14.2040 HW2           1 RES     
   12064 OW           3.2460    33.8060     5.4530 OW            1 RES     
   12065 HW1          4.0310    33.5160     4.9070 HW1           1 RES     
   12066 HW2          2.6210    34.3400     4.8820 HW2           1 RES     
   12067 OW          29.1530    54.5840     9.0370 OW            1 RES     
   12068 HW1         29.8420    54.1940     8.4270 HW1           1 RES     
   12069 HW2         29.3120    54.2600     9.9700 HW2           1 RES     
   12070 OW          21.0640    45.7630    10.6940 OW            1 RES     
   12071 HW1         21.1180    44.7820    10.8760 HW1           1 RES     
   12072 HW2         21.2080    46.2690    11.5450 HW2           1 RES     
   12073 OW          50.0140    38.6990    14.0760 OW            1 RES     
   12074 HW1         50.0490    39.6890    14.2050 HW1           1 RES     
   12075 HW2         50.9440    38.3350    14.0270 HW2           1 RES     
   12076 OW          41.9030    44.9280     5.8870 OW            1 RES     
   12077 HW1         42.2030    43.9990     5.6710 HW1           1 RES     
   12078 HW2         42.4770    45.3020     6.6170 HW2           1 RES     
   12079 OW          16.0570    37.4700    13.0500 OW            1 RES     
   12080 HW1         15.7810    36.5100    13.0750 HW1           1 RES     
   12081 HW2         15.2530    38.0520    13.1710 HW2           1 RES     
   12082 OW          21.5580    45.6920     2.5650 OW            1 RES     
   12083 HW1         22.4630    45.2700     2.5380 HW1           1 RES     
   12084 HW2         21.6540    46.6870     2.5910 HW2           1 RES     
   12085 OW          37.3390    47.3340    14.1830 OW            1 RES     
   12086 HW1         36.5940    46.6670    14.1980 HW1           1 RES     
   12087 HW2         36.9590    48.2590    14.2030 HW2           1 RES     
   12088 OW          28.7430     6.7930     3.8430 OW            1 RES     
   12089 HW1         29.2700     6.9720     4.6740 HW1           1 RES     
   12090 HW2         29.2190     7.1850     3.0560 HW2           1 RES     
   12091 OW          50.2560    41.3330     8.1790 OW            1 RES     
   12092 HW1         51.1750    41.5690     7.8630 HW1           1 RES     
   12093 HW2         49.7840    40.8080     7.4710 HW2           1 RES     
   12094 OW          11.4600    46.7890     5.6730 OW            1 RES     
   12095 HW1         12.2520    46.2530     5.9630 HW1           1 RES     
   12096 HW2         10.6920    46.6110     6.2890 HW2           1 RES     
   12097 OW          51.5540    12.4480    10.6790 OW            1 RES     
   12098 HW1         51.7770    13.4020    10.8750 HW1           1 RES     
   12099 HW2         51.6160    12.2850     9.6940 HW2           1 RES     
   12100 OW          25.7750    30.2640     8.9470 OW            1 RES     
   12101 HW1         25.4090    29.3420     9.0610 HW1           1 RES     
   12102 HW2         26.7540    30.2630     9.1550 HW2           1 RES     
   12103 OW          23.3120    38.2640     6.2850 OW            1 RES     
   12104 HW1         24.1490    37.7500     6.4680 HW1           1 RES     
   12105 HW2         23.4450    38.8460     5.4830 HW2           1 RES     
   12106 OW           2.9110    24.9890    10.7940 OW            1 RES     
   12107 HW1          2.5040    24.0760    10.7960 HW1           1 RES     
   12108 HW2          2.5000    25.5390    11.5210 HW2           1 RES     
   12109 OW          42.2220    37.4950     3.7550 OW            1 RES     
   12110 HW1         43.1190    37.0770     3.6140 HW1           1 RES     
   12111 HW2         41.7000    36.9520     4.4130 HW2           1 RES     
   12112 OW          28.4950     4.8420     2.8540 OW            1 RES     
   12113 HW1         29.4230     4.7250     2.5020 HW1           1 RES     
   12114 HW2         27.9120     4.1070     2.5090 HW2           1 RES     
   12115 OW          40.2590    39.1840     8.8370 OW            1 RES     
   12116 HW1         39.2680    39.3090     8.8750 HW1           1 RES     
   12117 HW2         40.6950    40.0490     8.5920 HW2           1 RES     
   12118 OW          19.8130    42.0220    10.2610 OW            1 RES     
   12119 HW1         20.3660    42.6270    10.8320 HW1           1 RES     
   12120 HW2         19.2510    41.4340    10.8430 HW2           1 RES     
   12121 OW          38.0280    18.8710    10.1120 OW            1 RES     
   12122 HW1         37.3750    19.5570     9.7940 HW1           1 RES     
   12123 HW2         38.9420    19.2750    10.1590 HW2           1 RES     
   12124 OW           4.7050    44.7220     8.4350 OW            1 RES     
   12125 HW1          4.6930    44.1150     9.2290 HW1           1 RES     
   12126 HW2          4.3020    45.6030     8.6830 HW2           1 RES     
   12127 OW          32.2700    32.5600    13.6580 OW            1 RES     
   12128 HW1         32.0570    32.3500    12.7040 HW1           1 RES     
   12129 HW2         31.4340    32.5120    14.2050 HW2           1 RES     
   12130 OW           6.9100    29.8790     7.7020 OW            1 RES     
   12131 HW1          6.8370    30.5370     6.9540 HW1           1 RES     
   12132 HW2          6.1820    29.1980     7.6210 HW2           1 RES     
   12133 OW          47.7800    53.5660     9.5630 OW            1 RES     
   12134 HW1         48.1070    54.5040     9.4590 HW1           1 RES     
   12135 HW2         48.5600    52.9500     9.6740 HW2           1 RES     
   12136 OW          42.7250    47.1350    13.0830 OW            1 RES     
   12137 HW1         43.0430    48.0400    12.8040 HW1           1 RES     
   12138 HW2         43.5060    46.5800    13.3690 HW2           1 RES     
   12139 OW          20.4820    48.6580    10.8740 OW            1 RES     
   12140 HW1         19.6940    48.1840    11.2660 HW1           1 RES     
   12141 HW2         20.8510    48.1210    10.1150 HW2           1 RES     
   12142 OW          24.9800    17.8730     7.2520 OW            1 RES     
   12143 HW1         25.4060    17.4620     8.0580 HW1           1 RES     
   12144 HW2         25.4740    18.7070     7.0020 HW2           1 RES     
   12145 OW          23.6750     2.5000    14.1730 OW            1 RES     
   12146 HW1         23.2210     3.3900    14.2050 HW1           1 RES     
   12147 HW2         24.6670     2.6310    14.1570 HW2           1 RES     
   12148 OW          32.9610    48.0890     3.7730 OW            1 RES     
   12149 HW1         33.7240    47.6520     3.2960 HW1           1 RES     
   12150 HW2         33.2390    48.3200     4.7050 HW2           1 RES     
   12151 OW          40.2250    16.9980    10.0420 OW            1 RES     
   12152 HW1         40.5690    17.8690     9.6930 HW1           1 RES     
   12153 HW2         39.4860    17.1680    10.6930 HW2           1 RES     
   12154 OW          51.4500     2.9970     8.8100 OW            1 RES     
   12155 HW1         50.6650     2.6890     8.2740 HW1           1 RES     
   12156 HW2         51.2310     3.8660     9.2530 HW2           1 RES     
   12157 OW           4.8380    16.4110     6.3730 OW            1 RES     
   12158 HW1          5.7020    16.8270     6.0920 HW1           1 RES     
   12159 HW2          4.9910    15.8330     7.1750 HW2           1 RES     
   12160 OW          38.1110    24.0390     3.6210 OW            1 RES     
   12161 HW1         38.1420    24.9480     4.0350 HW1           1 RES     
   12162 HW2         38.4380    24.0890     2.6780 HW2           1 RES     
   12163 OW          32.9920    28.2640     8.5770 OW            1 RES     
   12164 HW1         33.1930    29.2030     8.8520 HW1           1 RES     
   12165 HW2         32.5310    28.2670     7.6890 HW2           1 RES     
   12166 OW          24.6200     4.6530     2.5010 OW            1 RES     
   12167 HW1         25.5700     4.9630     2.5030 HW1           1 RES     
   12168 HW2         24.0100     5.4460     2.5000 HW2           1 RES     
   12169 OW          15.1890    43.5480     5.4780 OW            1 RES     
   12170 HW1         15.2350    42.5670     5.6620 HW1           1 RES     
   12171 HW2         14.8500    43.6980     4.5490 HW2           1 RES     
   12172 OW          37.4890    19.0980     5.2380 OW            1 RES     
   12173 HW1         37.9830    18.2620     5.0000 HW1           1 RES     
   12174 HW2         36.6020    19.1040     4.7770 HW2           1 RES     
   12175 OW           5.9850     2.5000    10.9950 OW            1 RES     
   12176 HW1          5.3810     3.2040    11.3680 HW1           1 RES     
   12177 HW2          6.6790     2.9280    10.4160 HW2           1 RES     
   12178 OW          50.7730    44.9050     4.3250 OW            1 RES     
   12179 HW1         50.5400    44.5550     3.4190 HW1           1 RES     
   12180 HW2         51.1920    45.8090     4.2370 HW2           1 RES     
   12181 OW          47.6120    49.3360     7.1750 OW            1 RES     
   12182 HW1         46.7400    49.7430     7.4450 HW1           1 RES     
   12183 HW2         47.6260    48.3720     7.4390 HW2           1 RES     
   12184 OW          37.2750    42.6280    14.1770 OW            1 RES     
   12185 HW1         37.4540    41.6460    14.1170 HW1           1 RES     
   12186 HW2         38.1430    43.1240    14.2030 HW2           1 RES     
   12187 OW          47.3070     5.5090     4.0080 OW            1 RES     
   12188 HW1         47.6210     5.0740     4.8510 HW1           1 RES     
   12189 HW2         46.4360     5.1050     3.7280 HW2           1 RES     
   12190 OW          25.3430    38.6510    12.0520 OW            1 RES     
   12191 HW1         25.9740    37.9160    12.2960 HW1           1 RES     
   12192 HW2         24.4010    38.3330    12.1600 HW2           1 RES     
   12193 OW          15.1480    28.6220    12.3820 OW            1 RES     
   12194 HW1         14.9590    29.5410    12.0390 HW1           1 RES     
   12195 HW2         14.3100    28.2260    12.7580 HW2           1 RES     
   12196 OW          29.1920    26.4460     7.5470 OW            1 RES     
   12197 HW1         28.9550    25.5370     7.8900 HW1           1 RES     
   12198 HW2         29.5960    26.3640     6.6360 HW2           1 RES     
   12199 OW          40.3340    36.2510    12.1000 OW            1 RES     
   12200 HW1         39.6180    36.1210    12.7860 HW1           1 RES     
   12201 HW2         40.6110    35.3620    11.7350 HW2           1 RES     
   12202 OW          34.8270    18.4300     2.5160 OW            1 RES     
   12203 HW1         35.7750    18.7390     2.5900 HW1           1 RES     
   12204 HW2         34.8020    17.4310     2.5040 HW2           1 RES     
   12205 OW          26.3870    39.4000     9.2720 OW            1 RES     
   12206 HW1         26.9450    39.5130    10.0930 HW1           1 RES     
   12207 HW2         26.4820    40.2070     8.6890 HW2           1 RES     
   12208 OW          35.3100    48.6160    10.3420 OW            1 RES     
   12209 HW1         35.6700    47.7460    10.6780 HW1           1 RES     
   12210 HW2         35.9130    48.9730     9.6280 HW2           1 RES     
   12211 OW          12.9850    17.4090     3.4010 OW            1 RES     
   12212 HW1         13.6870    17.4170     2.6900 HW1           1 RES     
   12213 HW2         12.4460    16.5710     3.3280 HW2           1 RES     
   12214 OW          26.6260    12.1490    10.5490 OW            1 RES     
   12215 HW1         25.9860    11.6990     9.9270 HW1           1 RES     
   12216 HW2         27.5250    11.7180    10.4730 HW2           1 RES     
   12217 OW          54.7850    48.0800     3.1160 OW            1 RES     
   12218 HW1         54.6000    48.4070     4.0420 HW1           1 RES     
   12219 HW2         54.0620    48.3940     2.5000 HW2           1 RES     
   12220 OW          26.8940    17.6610    10.1420 OW            1 RES     
   12221 HW1         26.9570    18.6020    10.4730 HW1           1 RES     
   12222 HW2         26.1000    17.2140    10.5550 HW2           1 RES     
   12223 OW          49.1910     3.7840     3.0160 OW            1 RES     
   12224 HW1         48.2020     3.7000     3.1340 HW1           1 RES     
   12225 HW2         49.6550     3.1230     3.6060 HW2           1 RES     
   12226 OW          20.4910    20.4840     4.3660 OW            1 RES     
   12227 HW1         20.3540    19.5050     4.2180 HW1           1 RES     
   12228 HW2         21.3170    20.6270     4.9100 HW2           1 RES     
   12229 OW          22.9770    45.1080    13.2830 OW            1 RES     
   12230 HW1         22.4760    45.9720    13.3180 HW1           1 RES     
   12231 HW2         22.3310    44.3530    13.1700 HW2           1 RES     
   12232 OW          53.8400    34.5840     5.9390 OW            1 RES     
   12233 HW1         53.6510    33.6280     5.7170 HW1           1 RES     
   12234 HW2         54.7860    34.8020     5.6990 HW2           1 RES     
   12235 OW           9.1460    48.4200     3.4270 OW            1 RES     
   12236 HW1          9.3800    48.1670     4.3640 HW1           1 RES     
   12237 HW2          8.2020    48.7510     3.3960 HW2           1 RES     
   12238 OW           8.0840    38.0190     8.3250 OW            1 RES     
   12239 HW1          7.8260    37.0940     8.0490 HW1           1 RES     
   12240 HW2          7.3450    38.4260     8.8620 HW2           1 RES     
   12241 OW          52.1580    35.6940    13.6990 OW            1 RES     
   12242 HW1         51.8450    34.8870    14.2000 HW1           1 RES     
   12243 HW2         53.0750    35.5270    13.3370 HW2           1 RES     
   12244 OW          49.5770    44.8910    10.6230 OW            1 RES     
   12245 HW1         50.5720    44.8520    10.5440 HW1           1 RES     
   12246 HW2         49.2750    45.8440    10.5770 HW2           1 RES     
   12247 OW           8.8070    19.5640     3.4930 OW            1 RES     
   12248 HW1          9.4620    18.8310     3.6730 HW1           1 RES     
   12249 HW2          9.1540    20.1490     2.7600 HW2           1 RES     
   12250 OW          30.1810    12.9740     9.6830 OW            1 RES     
   12251 HW1         29.7790    12.3230    10.3260 HW1           1 RES     
   12252 HW2         30.7240    12.4810     9.0030 HW2           1 RES     
   12253 OW           8.2350    43.6740    11.5440 OW            1 RES     
   12254 HW1          8.1290    44.6670    11.5530 HW1           1 RES     
   12255 HW2          7.6710    43.2840    10.8170 HW2           1 RES     
   12256 OW          15.9410    53.5200     3.0940 OW            1 RES     
   12257 HW1         15.9010    54.4760     3.3810 HW1           1 RES     
   12258 HW2         16.8770    53.2900     2.8270 HW2           1 RES     
   12259 OW          50.9840     4.6520     7.2130 OW            1 RES     
   12260 HW1         50.0230     4.9260     7.1920 HW1           1 RES     
   12261 HW2         51.5300     5.3780     7.6330 HW2           1 RES     
   12262 OW          31.8420    12.5150    11.0680 OW            1 RES     
   12263 HW1         31.9400    11.6250    10.6240 HW1           1 RES     
   12264 HW2         31.4430    12.3920    11.9770 HW2           1 RES     
   12265 OW          53.2900    17.7540     5.3660 OW            1 RES     
   12266 HW1         54.0510    17.1060     5.3390 HW1           1 RES     
   12267 HW2         53.1220    18.0310     6.3120 HW2           1 RES     
   12268 OW          15.4290    39.8080     2.9790 OW            1 RES     
   12269 HW1         16.2210    39.2090     3.0900 HW1           1 RES     
   12270 HW2         14.5900    39.2660     3.0260 HW2           1 RES     
   12271 OW          39.7840    26.3100    12.4780 OW            1 RES     
   12272 HW1         39.1890    26.2460    13.2790 HW1           1 RES     
   12273 HW2         39.7340    27.2340    12.0980 HW2           1 RES     
   12274 OW          33.9990    18.2310    11.5090 OW            1 RES     
   12275 HW1         33.5460    18.0860    12.3880 HW1           1 RES     
   12276 HW2         33.3850    17.9550    10.7680 HW2           1 RES     
   12277 OW           6.5900     6.8810     3.2730 OW            1 RES     
   12278 HW1          7.0880     6.2700     2.6590 HW1           1 RES     
   12279 HW2          7.0890     7.7420     3.3660 HW2           1 RES     
   12280 OW          50.0650    35.8120     9.0910 OW            1 RES     
   12281 HW1         50.8690    35.2190     9.0880 HW1           1 RES     
   12282 HW2         50.3550    36.7690     9.0930 HW2           1 RES     
   12283 OW          32.5180    26.2000     5.3810 OW            1 RES     
   12284 HW1         31.6900    26.3340     5.9260 HW1           1 RES     
   12285 HW2         32.9500    25.3350     5.6380 HW2           1 RES     
   12286 OW          29.0690    43.2180     5.2850 OW            1 RES     
   12287 HW1         29.2880    44.1580     5.0270 HW1           1 RES     
   12288 HW2         28.0870    43.1370     5.4550 HW2           1 RES     
   12289 OW          50.4110     9.0460     3.9910 OW            1 RES     
   12290 HW1         51.0090     9.8410     4.0930 HW1           1 RES     
   12291 HW2         49.4650     9.3140     4.1750 HW2           1 RES     
   12292 OW           5.1980     9.6610    12.8410 OW            1 RES     
   12293 HW1          4.2330     9.9070    12.7550 HW1           1 RES     
   12294 HW2          5.7460    10.4900    12.9520 HW2           1 RES     
   12295 OW           7.1100     3.9620     8.4690 OW            1 RES     
   12296 HW1          8.0020     4.3910     8.3350 HW1           1 RES     
   12297 HW2          7.1700     2.9880     8.2460 HW2           1 RES     
   12298 OW          16.8290    17.0910    13.5650 OW            1 RES     
   12299 HW1         17.5060    16.7310    14.2050 HW1           1 RES     
   12300 HW2         17.2910    17.4330    12.7470 HW2           1 RES     
   12301 OW          19.9800    14.9450    11.4820 OW            1 RES     
   12302 HW1         20.6190    14.2410    11.7910 HW1           1 RES     
   12303 HW2         19.5190    14.6360    10.6500 HW2           1 RES     
   12304 OW          43.2200    17.1900     7.3390 OW            1 RES     
   12305 HW1         42.5220    16.4750     7.3700 HW1           1 RES     
   12306 HW2         42.7790    18.0860     7.2880 HW2           1 RES     
   12307 OW          14.8240    36.3050     7.7130 OW            1 RES     
   12308 HW1         14.4040    37.1920     7.9030 HW1           1 RES     
   12309 HW2         14.5110    35.9710     6.8240 HW2           1 RES     
   12310 OW          44.7080    11.7020     8.5380 OW            1 RES     
   12311 HW1         45.4940    12.1920     8.9140 HW1           1 RES     
   12312 HW2         43.9470    11.7450     9.1860 HW2           1 RES     
   12313 OW           8.3210     6.7220     7.6960 OW            1 RES     
   12314 HW1          8.6570     6.8990     8.6210 HW1           1 RES     
   12315 HW2          8.9220     6.0640     7.2420 HW2           1 RES     
   12316 OW          54.1230    26.0720     5.0740 OW            1 RES     
   12317 HW1         54.7860    25.5870     4.5050 HW1           1 RES     
   12318 HW2         53.4720    26.5570     4.4890 HW2           1 RES     
   12319 OW          40.2490     8.1890     2.6740 OW            1 RES     
   12320 HW1         39.3680     8.4500     3.0660 HW1           1 RES     
   12321 HW2         40.8580     8.9820     2.6610 HW2           1 RES     
   12322 OW          30.4160    24.3790     6.1630 OW            1 RES     
   12323 HW1         30.5750    24.5690     5.1950 HW1           1 RES     
   12324 HW2         31.2940    24.2830     6.6330 HW2           1 RES     
   12325 OW          45.6970    37.5400    11.6500 OW            1 RES     
   12326 HW1         45.4850    36.6260    11.3060 HW1           1 RES     
   12327 HW2         44.8480    38.0100    11.8940 HW2           1 RES     
   12328 OW          47.8170    39.0650     6.9400 OW            1 RES     
   12329 HW1         47.5090    38.2070     7.3510 HW1           1 RES     
   12330 HW2         47.8470    39.7790     7.6400 HW2           1 RES     
   12331 OW          43.9080    20.4520     9.1400 OW            1 RES     
   12332 HW1         43.2180    19.9140     9.6230 HW1           1 RES     
   12333 HW2         44.7820    19.9660     9.1560 HW2           1 RES     
   12334 OW          33.8260    19.2160     6.2280 OW            1 RES     
   12335 HW1         34.1670    20.0130     6.7270 HW1           1 RES     
   12336 HW2         33.7380    18.4420     6.8550 HW2           1 RES     
   12337 OW          41.3350    11.5180     9.8050 OW            1 RES     
   12338 HW1         40.8860    11.3630    10.6840 HW1           1 RES     
   12339 HW2         40.8070    11.0780     9.0780 HW2           1 RES     
   12340 OW          29.7810    19.1850     3.5800 OW            1 RES     
   12341 HW1         30.6770    19.4540     3.9320 HW1           1 RES     
   12342 HW2         29.6250    18.2150     3.7720 HW2           1 RES     
   12343 OW          40.3960    27.3040     8.7420 OW            1 RES     
   12344 HW1         40.5480    26.8210     9.6040 HW1           1 RES     
   12345 HW2         39.4940    27.0680     8.3810 HW2           1 RES     
   12346 OW          39.7800    37.6480     2.5180 OW            1 RES     
   12347 HW1         40.4890    38.3310     2.6880 HW1           1 RES     
   12348 HW2         39.9910    36.8130     3.0270 HW2           1 RES     
   12349 OW          21.5110     3.3060     4.1040 OW            1 RES     
   12350 HW1         21.1490     2.6490     4.7650 HW1           1 RES     
   12351 HW2         20.9310     3.3150     3.2890 HW2           1 RES     
   12352 OW          33.3110    40.3010     3.7210 OW            1 RES     
   12353 HW1         32.9980    40.9930     4.3700 HW1           1 RES     
   12354 HW2         33.2860    39.4000     4.1540 HW2           1 RES     
   12355 OW          52.4560    16.1420     4.1230 OW            1 RES     
   12356 HW1         52.7990    15.2760     4.4850 HW1           1 RES     
   12357 HW2         52.9550    16.3760     3.2880 HW2           1 RES     
   12358 OW          17.8250    43.0790    12.3020 OW            1 RES     
   12359 HW1         18.8170    42.9700    12.3570 HW1           1 RES     
   12360 HW2         17.3790    42.2650    12.6720 HW2           1 RES     
   12361 OW          49.4550    18.6810     3.2290 OW            1 RES     
   12362 HW1         50.4510    18.6080     3.1880 HW1           1 RES     
   12363 HW2         49.1340    19.2850     2.5000 HW2           1 RES     
   12364 OW          38.1720    12.2140     2.9500 OW            1 RES     
   12365 HW1         37.2800    12.2400     2.5000 HW1           1 RES     
   12366 HW2         38.3190    11.3080     3.3480 HW2           1 RES     
   12367 OW          21.1420    33.5220     4.3480 OW            1 RES     
   12368 HW1         21.0640    33.2140     3.4010 HW1           1 RES     
   12369 HW2         20.2900    33.3280     4.8340 HW2           1 RES     
   12370 OW          31.6040    34.8480    12.9440 OW            1 RES     
   12371 HW1         30.9880    34.3260    12.3550 HW1           1 RES     
   12372 HW2         32.2490    35.3630    12.3790 HW2           1 RES     
   12373 OW          27.9510    12.7810     7.7080 OW            1 RES     
   12374 HW1         28.9120    13.0020     7.8690 HW1           1 RES     
   12375 HW2         27.3770    13.5340     8.0320 HW2           1 RES     
   12376 OW          41.2820    13.7000     8.2690 OW            1 RES     
   12377 HW1         41.5600    14.6500     8.1330 HW1           1 RES     
   12378 HW2         40.2900    13.6580     8.3960 HW2           1 RES     
   12379 OW          49.3090    22.8940     7.8570 OW            1 RES     
   12380 HW1         49.4190    23.8870     7.8830 HW1           1 RES     
   12381 HW2         48.3380    22.6670     7.7870 HW2           1 RES     
   12382 OW          17.9000    21.8410     5.3170 OW            1 RES     
   12383 HW1         17.0680    21.2920     5.3900 HW1           1 RES     
   12384 HW2         18.7000    21.2450     5.3930 HW2           1 RES     
   12385 OW          41.3800    17.4170    14.2050 OW            1 RES     
   12386 HW1         40.8400    16.6090    13.9700 HW1           1 RES     
   12387 HW2         41.0090    18.2160    13.7300 HW2           1 RES     
   12388 OW          44.2230    29.7430     9.6890 OW            1 RES     
   12389 HW1         44.7480    29.9250    10.5190 HW1           1 RES     
   12390 HW2         44.2870    30.5290     9.0740 HW2           1 RES     
   12391 OW          39.6100    29.1190     7.5960 OW            1 RES     
   12392 HW1         40.5300    29.0240     7.2190 HW1           1 RES     
   12393 HW2         39.6680    29.4570     8.5360 HW2           1 RES     
   12394 OW           4.3260    12.9630    10.8380 OW            1 RES     
   12395 HW1          3.9350    12.8150     9.9300 HW1           1 RES     
   12396 HW2          3.6140    12.8460    11.5310 HW2           1 RES     
   12397 OW          18.1950     4.7780     3.0730 OW            1 RES     
   12398 HW1         18.0150     5.5770     2.5000 HW1           1 RES     
   12399 HW2         18.2310     3.9580     2.5000 HW2           1 RES     
   12400 OW          52.0820    24.8860    14.0060 OW            1 RES     
   12401 HW1         52.4280    25.8020    14.2050 HW1           1 RES     
   12402 HW2         51.3360    24.9480    13.3410 HW2           1 RES     
   12403 OW          47.3870    21.0900    11.8360 OW            1 RES     
   12404 HW1         46.6790    20.5000    11.4490 HW1           1 RES     
   12405 HW2         47.7540    20.6700    12.6660 HW2           1 RES     
   12406 OW          33.1260     6.4610    14.2030 OW            1 RES     
   12407 HW1         32.1670     6.6280    13.9760 HW1           1 RES     
   12408 HW2         33.3440     5.4980    14.0460 HW2           1 RES     
   12409 OW           4.4530     6.4170     7.1750 OW            1 RES     
   12410 HW1          4.1540     6.3280     8.1250 HW1           1 RES     
   12411 HW2          5.1980     5.7730     6.9990 HW2           1 RES     
   12412 OW          25.5800    10.3190     4.9880 OW            1 RES     
   12413 HW1         25.9200    11.1110     5.4940 HW1           1 RES     
   12414 HW2         26.3510     9.7450     4.7090 HW2           1 RES     
   12415 OW           7.5450    52.1130    11.3560 OW            1 RES     
   12416 HW1          8.5060    52.3860    11.3480 HW1           1 RES     
   12417 HW2          6.9670    52.9290    11.3720 HW2           1 RES     
   12418 OW          15.1060    51.7790     5.3460 OW            1 RES     
   12419 HW1         14.8180    51.2910     6.1700 HW1           1 RES     
   12420 HW2         15.6780    51.1790     4.7860 HW2           1 RES     
   12421 OW           9.6930     8.7740    14.1920 OW            1 RES     
   12422 HW1         10.0010     7.8230    14.2040 HW1           1 RES     
   12423 HW2         10.4870     9.3820    14.1870 HW2           1 RES     
   12424 OW          52.1020    52.2620    13.9810 OW            1 RES     
   12425 HW1         52.9640    51.8080    14.2040 HW1           1 RES     
   12426 HW2         51.5040    51.6230    13.4950 HW2           1 RES     
   12427 OW          47.6180     2.5030     4.8850 OW            1 RES     
   12428 HW1         46.7510     2.9340     4.6370 HW1           1 RES     
   12429 HW2         48.0750     3.0510     5.5860 HW2           1 RES     
   12430 OW          19.5540     7.6680    10.8460 OW            1 RES     
   12431 HW1         19.2250     6.7250    10.8620 HW1           1 RES     
   12432 HW2         20.5540     7.6730    10.8480 HW2           1 RES     
   12433 OW          53.8710    29.5960    10.8220 OW            1 RES     
   12434 HW1         53.9120    28.5980    10.8460 HW1           1 RES     
   12435 HW2         54.7860    29.9720    10.9690 HW2           1 RES     
   12436 OW          27.7740    17.9150     6.2040 OW            1 RES     
   12437 HW1         27.2200    17.3540     6.8190 HW1           1 RES     
   12438 HW2         27.1740    18.4670     5.6250 HW2           1 RES     
   12439 OW          37.1800     3.9550    11.3190 OW            1 RES     
   12440 HW1         37.5140     4.5920    12.0120 HW1           1 RES     
   12441 HW2         36.9770     4.4540    10.4760 HW2           1 RES     
   12442 OW          12.3370    54.6490     5.7120 OW            1 RES     
   12443 HW1         11.6890    54.7830     6.4600 HW1           1 RES     
   12444 HW2         13.1640    54.2080     6.0600 HW2           1 RES     
   12445 OW          37.0990    46.8040    12.0610 OW            1 RES     
   12446 HW1         37.7210    46.0460    11.8670 HW1           1 RES     
   12447 HW2         37.6030    47.6670    12.0240 HW2           1 RES     
   12448 OW           5.0380    15.4370     9.5930 OW            1 RES     
   12449 HW1          4.7550    15.0980    10.4900 HW1           1 RES     
   12450 HW2          4.8470    16.4170     9.5310 HW2           1 RES     
   12451 OW          11.1320    33.7420     3.3520 OW            1 RES     
   12452 HW1         11.3390    34.6930     3.1260 HW1           1 RES     
   12453 HW2         11.6290    33.1360     2.7310 HW2           1 RES     
   12454 OW           9.4720     8.5110     6.7040 OW            1 RES     
   12455 HW1          9.1970     8.0680     5.8510 HW1           1 RES     
   12456 HW2          8.7820     9.1860     6.9660 HW2           1 RES     
   12457 OW          24.9900    14.9190     9.5880 OW            1 RES     
   12458 HW1         25.7060    15.3710     9.0580 HW1           1 RES     
   12459 HW2         24.7570    15.4810    10.3820 HW2           1 RES     
   12460 OW          40.8010    48.0330     7.8120 OW            1 RES     
   12461 HW1         41.4800    47.3110     7.9410 HW1           1 RES     
   12462 HW2         41.2450    48.9260     7.8800 HW2           1 RES     
   12463 OW          40.6460    12.8950    12.5720 OW            1 RES     
   12464 HW1         41.1420    13.6380    13.0190 HW1           1 RES     
   12465 HW2         41.0920    12.0240    12.7780 HW2           1 RES     
   12466 OW          49.8390    32.7560     2.5000 OW            1 RES     
   12467 HW1         50.6530    33.3080     2.6710 HW1           1 RES     
   12468 HW2         49.9170    31.8860     2.9880 HW2           1 RES     
   12469 OW          32.2500    40.3800     7.9680 OW            1 RES     
   12470 HW1         32.2280    40.7040     8.9130 HW1           1 RES     
   12471 HW2         33.1740    40.4880     7.6000 HW2           1 RES     
   12472 OW           8.8980    30.2520     8.8640 OW            1 RES     
   12473 HW1          9.0610    29.6350     8.0950 HW1           1 RES     
   12474 HW2          8.5060    29.7380     9.6270 HW2           1 RES     
   12475 OW          43.5210    53.1160     4.1980 OW            1 RES     
   12476 HW1         42.6210    52.7020     4.3280 HW1           1 RES     
   12477 HW2         43.5470    53.5890     3.3170 HW2           1 RES     
   12478 OW          30.1660    42.0880     6.9080 OW            1 RES     
   12479 HW1         30.6700    42.9480     6.8300 HW1           1 RES     
   12480 HW2         30.4430    41.6140     7.7450 HW2           1 RES     
   12481 OW          17.1800    40.4690     7.8490 OW            1 RES     
   12482 HW1         17.0760    39.5460     8.2170 HW1           1 RES     
   12483 HW2         17.7050    40.4320     6.9980 HW2           1 RES     
   12484 OW          52.8590    31.8100     9.6270 OW            1 RES     
   12485 HW1         53.5320    32.3590    10.1210 HW1           1 RES     
   12486 HW2         53.3080    31.0080     9.2320 HW2           1 RES     
   12487 OW          48.5010     8.6910    11.0840 OW            1 RES     
   12488 HW1         48.9700     8.8550    10.2160 HW1           1 RES     
   12489 HW2         49.0490     8.0720    11.6480 HW2           1 RES     
   12490 OW          39.4430    37.4160    10.2510 OW            1 RES     
   12491 HW1         39.7640    36.5780     9.8110 HW1           1 RES     
   12492 HW2         40.2200    37.9020    10.6500 HW2           1 RES     
   12493 OW           7.6170    33.2700    13.5190 OW            1 RES     
   12494 HW1          6.9760    34.0100    13.7180 HW1           1 RES     
   12495 HW2          7.5190    32.5490    14.2050 HW2           1 RES     
   12496 OW          38.0600    51.8320     6.0950 OW            1 RES     
   12497 HW1         38.3880    51.8920     5.1530 HW1           1 RES     
   12498 HW2         37.2300    51.2740     6.1240 HW2           1 RES     
   12499 OW           7.1360    20.5730     7.5990 OW            1 RES     
   12500 HW1          7.4070    19.6570     7.8910 HW1           1 RES     
   12501 HW2          6.7030    21.0530     8.3620 HW2           1 RES     
   12502 OW          34.9670    54.3410    10.3570 OW            1 RES     
   12503 HW1         35.5390    54.0080    11.1060 HW1           1 RES     
   12504 HW2         34.6710    53.5690     9.7950 HW2           1 RES     
   12505 OW          52.2140    42.9050     9.2690 OW            1 RES     
   12506 HW1         52.8560    43.6370     9.4910 HW1           1 RES     
   12507 HW2         52.6210    42.0220     9.5030 HW2           1 RES     
   12508 OW          53.9110    44.0330    11.4880 OW            1 RES     
   12509 HW1         53.1640    43.3910    11.6550 HW1           1 RES     
   12510 HW2         54.7840    43.5450    11.5200 HW2           1 RES     
   12511 OW          26.7280    25.0790     5.9970 OW            1 RES     
   12512 HW1         27.6590    24.8090     6.2390 HW1           1 RES     
   12513 HW2         26.1910    25.2110     6.8310 HW2           1 RES     
   12514 OW          42.5590    41.5380     7.1160 OW            1 RES     
   12515 HW1         41.7690    41.9870     6.7010 HW1           1 RES     
   12516 HW2         43.2940    42.2050     7.2420 HW2           1 RES     
   12517 OW           5.7050    54.2150    12.7980 OW            1 RES     
   12518 HW1          5.2650    54.7840    13.4930 HW1           1 RES     
   12519 HW2          5.9830    54.7850    12.0260 HW2           1 RES     
   12520 OW          45.8610    49.1780     3.6120 OW            1 RES     
   12521 HW1         46.7970    49.4380     3.3780 HW1           1 RES     
   12522 HW2         45.2610    49.9740     3.5260 HW2           1 RES     
   12523 OW          43.2790    26.5620    13.0130 OW            1 RES     
   12524 HW1         43.5970    26.0490    13.8100 HW1           1 RES     
   12525 HW2         42.5720    27.2110    13.2940 HW2           1 RES     
   12526 OW          53.2480    14.4390     9.0590 OW            1 RES     
   12527 HW1         53.2510    14.7810     9.9980 HW1           1 RES     
   12528 HW2         52.3190    14.1710     8.8040 HW2           1 RES     
   12529 OW          37.7850    30.2810     2.5180 OW            1 RES     
   12530 HW1         37.0950    31.0030     2.5000 HW1           1 RES     
   12531 HW2         37.3490    29.4070     2.7330 HW2           1 RES     
   12532 OW          54.7020     2.8980    11.0530 OW            1 RES     
   12533 HW1         53.8020     2.5000    11.2250 HW1           1 RES     
   12534 HW2         54.5990     3.7430    10.5280 HW2           1 RES     
   12535 OW          39.5550    40.7890    13.8780 OW            1 RES     
   12536 HW1         38.9300    40.1950    13.3720 HW1           1 RES     
   12537 HW2         40.4200    40.8630    13.3820 HW2           1 RES     
   12538 OW          54.0420    34.3590     3.6770 OW            1 RES     
   12539 HW1         53.1720    33.9770     3.3680 HW1           1 RES     
   12540 HW2         54.7650    33.6790     3.5610 HW2           1 RES     
   12541 OW          27.1460    22.2920     2.7000 OW            1 RES     
   12542 HW1         26.9900    22.7100     3.5940 HW1           1 RES     
   12543 HW2         26.4100    21.6440     2.5010 HW2           1 RES     
   12544 OW          31.1510    14.5900    11.3110 OW            1 RES     
   12545 HW1         31.8280    14.5570    12.0450 HW1           1 RES     
   12546 HW2         30.3650    15.1340    11.6050 HW2           1 RES     
   12547 OW          53.8390    48.6890     7.6810 OW            1 RES     
   12548 HW1         54.5010    48.0310     7.3240 HW1           1 RES     
   12549 HW2         53.7430    48.5640     8.6680 HW2           1 RES     
   12550 OW          46.8990    46.5780     2.5720 OW            1 RES     
   12551 HW1         45.9050    46.6640     2.6200 HW1           1 RES     
   12552 HW2         47.3100    47.4870     2.5000 HW2           1 RES     
   12553 OW           3.0770    18.3570     7.6970 OW            1 RES     
   12554 HW1          2.5000    17.5430     7.6300 HW1           1 RES     
   12555 HW2          2.5000    19.1700     7.7800 HW2           1 RES     
   12556 OW          15.1320    46.7730    14.1990 OW            1 RES     
   12557 HW1         16.0090    46.4610    13.8350 HW1           1 RES     
   12558 HW2         14.4830    46.0110    14.2040 HW2           1 RES     
   12559 OW           2.5130    27.9660     3.6240 OW            1 RES     
   12560 HW1          2.7170    27.2710     2.9350 HW1           1 RES     
   12561 HW2          2.5510    27.5540     4.5350 HW2           1 RES     
   12562 OW          40.1830    17.2080     7.5900 OW            1 RES     
   12563 HW1         39.8050    17.5400     6.7270 HW1           1 RES     
   12564 HW2         40.0940    16.2130     7.6320 HW2           1 RES     
   12565 OW          25.2440    45.0310    13.3770 OW            1 RES     
   12566 HW1         25.0040    45.8360    12.8360 HW1           1 RES     
   12567 HW2         25.9860    45.2620    14.0070 HW2           1 RES     
   12568 OW          18.7960    22.7260    10.2440 OW            1 RES     
   12569 HW1         17.9110    22.2660    10.1730 HW1           1 RES     
   12570 HW2         18.7380    23.6280     9.8150 HW2           1 RES     
   12571 OW          26.9070    30.4860     6.5870 OW            1 RES     
   12572 HW1         26.9060    31.2710     7.2060 HW1           1 RES     
   12573 HW2         25.9650    30.2400     6.3580 HW2           1 RES     
   12574 OW          35.9210    39.2420     4.0230 OW            1 RES     
   12575 HW1         35.4720    40.1310     4.1070 HW1           1 RES     
   12576 HW2         35.2980    38.5230     4.3300 HW2           1 RES     
   12577 OW          44.6570    54.5140    12.3480 OW            1 RES     
   12578 HW1         44.9170    54.7860    13.2740 HW1           1 RES     
   12579 HW2         45.2790    53.8030    12.0210 HW2           1 RES     
   12580 OW          36.7770     8.8270    10.7760 OW            1 RES     
   12581 HW1         36.7250     9.7520    10.4010 HW1           1 RES     
   12582 HW2         37.0010     8.8730    11.7500 HW2           1 RES     
   12583 OW          14.4320    42.5140    11.4560 OW            1 RES     
   12584 HW1         14.9710    42.1940    12.2350 HW1           1 RES     
   12585 HW2         14.7080    43.4460    11.2200 HW2           1 RES     
   12586 OW          17.0170    22.5220     7.2130 OW            1 RES     
   12587 HW1         16.4480    23.2830     6.9040 HW1           1 RES     
   12588 HW2         16.4330    21.7470     7.4560 HW2           1 RES     
   12589 OW          52.1990    24.4080    10.3560 OW            1 RES     
   12590 HW1         51.7360    25.2320    10.0310 HW1           1 RES     
   12591 HW2         51.5370    23.6610    10.4300 HW2           1 RES     
   12592 OW          38.9430    33.6700    13.6160 OW            1 RES     
   12593 HW1         39.6470    33.6180    12.9080 HW1           1 RES     
   12594 HW2         39.0840    34.4930    14.1660 HW2           1 RES     
   12595 OW          35.1410    11.7010     9.0670 OW            1 RES     
   12596 HW1         35.9080    12.2510     8.7370 HW1           1 RES     
   12597 HW2         35.0000    10.9230     8.4530 HW2           1 RES     
   12598 OW           5.2130    18.5620     8.1840 OW            1 RES     
   12599 HW1          5.1250    19.5500     8.0640 HW1           1 RES     
   12600 HW2          5.7740    18.3720     8.9900 HW2           1 RES     
   12601 OW          42.7210     9.1730    11.6860 OW            1 RES     
   12602 HW1         42.4390    10.1300    11.6380 HW1           1 RES     
   12603 HW2         43.7080     9.1230    11.8410 HW2           1 RES     
   12604 OW          24.6870     4.6860     4.6990 OW            1 RES     
   12605 HW1         25.2960     5.1920     5.3100 HW1           1 RES     
   12606 HW2         25.0990     3.8040     4.4730 HW2           1 RES     
   12607 OW          50.8390    43.6230    12.6610 OW            1 RES     
   12608 HW1         50.5170    43.0870    11.8810 HW1           1 RES     
   12609 HW2         50.0580    44.0480    13.1190 HW2           1 RES     
   12610 OW          21.4410    24.9610    13.1250 OW            1 RES     
   12611 HW1         21.1840    25.9190    13.0020 HW1           1 RES     
   12612 HW2         22.4090    24.9040    13.3700 HW2           1 RES     
   12613 OW           5.4840    41.8400     5.9390 OW            1 RES     
   12614 HW1          4.5870    41.6720     6.3460 HW1           1 RES     
   12615 HW2          5.9020    42.6390     6.3720 HW2           1 RES     
   12616 OW           3.4100    34.1250     9.6760 OW            1 RES     
   12617 HW1          4.1060    33.6620    10.2250 HW1           1 RES     
   12618 HW2          2.5060    33.9490    10.0660 HW2           1 RES     
   12619 OW          30.9090    50.5440    11.2570 OW            1 RES     
   12620 HW1         31.4540    50.0290    11.9180 HW1           1 RES     
   12621 HW2         31.4760    50.7780    10.4670 HW2           1 RES     
   12622 OW          47.9160     3.1300     8.0960 OW            1 RES     
   12623 HW1         48.3810     3.9870     8.3150 HW1           1 RES     
   12624 HW2         48.5610     2.5020     7.6600 HW2           1 RES     
   12625 OW          49.9260    11.5530     6.0750 OW            1 RES     
   12626 HW1         50.4560    10.8360     6.5260 HW1           1 RES     
   12627 HW2         50.1950    11.6120     5.1130 HW2           1 RES     
   12628 OW          24.6190    47.4700     4.7530 OW            1 RES     
   12629 HW1         25.3750    46.8510     4.9650 HW1           1 RES     
   12630 HW2         23.7660    46.9500     4.7020 HW2           1 RES     
   12631 OW          54.2270    29.1530     8.4880 OW            1 RES     
   12632 HW1         54.7850    29.8670     8.0660 HW1           1 RES     
   12633 HW2         54.7670    28.3160     8.5770 HW2           1 RES     
   12634 OW          37.7030    21.6420    10.4160 OW            1 RES     
   12635 HW1         36.8010    21.8880    10.7700 HW1           1 RES     
   12636 HW2         38.2010    21.1180    11.1070 HW2           1 RES     
   12637 OW          52.6260    47.4450     3.9050 OW            1 RES     
   12638 HW1         53.0430    46.6760     3.4220 HW1           1 RES     
   12639 HW2         51.8230    47.7620     3.3990 HW2           1 RES     
   12640 OW          16.9370    40.8870     4.5010 OW            1 RES     
   12641 HW1         17.1410    41.5700     5.2020 HW1           1 RES     
   12642 HW2         17.7040    40.2510     4.4200 HW2           1 RES     
   12643 OW          18.2950    16.3430     8.2160 OW            1 RES     
   12644 HW1         17.6210    16.6790     8.8720 HW1           1 RES     
   12645 HW2         18.5220    15.3920     8.4270 HW2           1 RES     
   12646 OW          35.5540    29.5720     7.5680 OW            1 RES     
   12647 HW1         34.7010    29.9370     7.1990 HW1           1 RES     
   12648 HW2         35.4150    29.2950     8.5190 HW2           1 RES     
   12649 OW           8.2020    37.3050    11.8930 OW            1 RES     
   12650 HW1          8.5770    37.3000    10.9670 HW1           1 RES     
   12651 HW2          8.7180    36.6680    12.4660 HW2           1 RES     
   12652 OW          25.4890    41.5120    11.0030 OW            1 RES     
   12653 HW1         26.4000    41.5860    10.5970 HW1           1 RES     
   12654 HW2         25.0940    40.6220    10.7730 HW2           1 RES     
   12655 OW          17.9150    18.8340     6.7260 OW            1 RES     
   12656 HW1         17.1150    19.3670     6.4540 HW1           1 RES     
   12657 HW2         18.7470    19.3120     6.4430 HW2           1 RES     
   12658 OW          45.7350    38.3830    14.0360 OW            1 RES     
   12659 HW1         44.8330    37.9830    14.1940 HW1           1 RES     
   12660 HW2         46.4020    37.6530    13.8860 HW2           1 RES     
   12661 OW          45.7480    14.5780     3.4350 OW            1 RES     
   12662 HW1         46.1300    15.4740     3.6590 HW1           1 RES     
   12663 HW2         45.0890    14.6730     2.6880 HW2           1 RES     
   12664 OW          35.8550     5.4770    14.1420 OW            1 RES     
   12665 HW1         35.3670     6.3470    14.2050 HW1           1 RES     
   12666 HW2         36.8210     5.6490    13.9480 HW2           1 RES     
   12667 OW          48.5840    11.7430     9.1830 OW            1 RES     
   12668 HW1         48.4730    10.7500     9.2120 HW1           1 RES     
   12669 HW2         47.6880    12.1760     9.0770 HW2           1 RES     
   12670 OW           3.7770    35.5700    14.1380 OW            1 RES     
   12671 HW1          3.9340    35.8330    13.1870 HW1           1 RES     
   12672 HW2          2.9200    35.0580    14.2050 HW2           1 RES     
   12673 OW          23.6680    18.5500     5.3660 OW            1 RES     
   12674 HW1         23.9680    17.5980     5.3090 HW1           1 RES     
   12675 HW2         23.0210    18.6520     6.1210 HW2           1 RES     
   12676 OW           7.3290    30.4310     3.1960 OW            1 RES     
   12677 HW1          8.1440    31.0060     3.1310 HW1           1 RES     
   12678 HW2          7.2200    30.1140     4.1380 HW2           1 RES     
   12679 OW          44.0430    13.8160    12.4040 OW            1 RES     
   12680 HW1         43.1130    13.7300    12.0470 HW1           1 RES     
   12681 HW2         44.0180    14.2780    13.2910 HW2           1 RES     
   12682 OW          47.6080    25.6080     3.3710 OW            1 RES     
   12683 HW1         46.6660    25.8240     3.6230 HW1           1 RES     
   12684 HW2         47.6150    25.1020     2.5080 HW2           1 RES     
   12685 OW          49.6220    40.5050     3.2690 OW            1 RES     
   12686 HW1         49.5070    39.8770     2.5000 HW1           1 RES     
   12687 HW2         50.5580    40.8580     3.2750 HW2           1 RES     
   12688 OW          13.6990    12.7470     8.5060 OW            1 RES     
   12689 HW1         13.0180    12.0970     8.8430 HW1           1 RES     
   12690 HW2         13.4710    13.6660     8.8260 HW2           1 RES     
   12691 OW           2.6770    23.3840     8.2100 OW            1 RES     
   12692 HW1          2.7130    22.7970     9.0180 HW1           1 RES     
   12693 HW2          3.5660    23.8210     8.0750 HW2           1 RES     
   12694 OW           3.0220    26.5070     7.2250 OW            1 RES     
   12695 HW1          3.2150    26.3560     6.2570 HW1           1 RES     
   12696 HW2          2.5060    25.7300     7.5880 HW2           1 RES     
   12697 OW          51.1870    10.4470     8.5650 OW            1 RES     
   12698 HW1         50.3670     9.8790     8.5050 HW1           1 RES     
   12699 HW2         51.9980     9.8620     8.5690 HW2           1 RES     
   12700 OW          24.8220    18.9480    10.0700 OW            1 RES     
   12701 HW1         24.1530    18.2610    10.3500 HW1           1 RES     
   12702 HW2         24.4470    19.8620    10.2230 HW2           1 RES     
   12703 OW          53.7030    22.2920     9.9940 OW            1 RES     
   12704 HW1         53.4650    22.9590     9.2880 HW1           1 RES     
   12705 HW2         52.8800    21.8010    10.2800 HW2           1 RES     
   12706 OW           9.7660    39.0920    12.4890 OW            1 RES     
   12707 HW1          8.7960    39.3260    12.5440 HW1           1 RES     
   12708 HW2         10.2950    39.9100    12.2640 HW2           1 RES     
   12709 OW          29.3010     2.5090     4.8680 OW            1 RES     
   12710 HW1         29.6780     3.4050     5.0990 HW1           1 RES     
   12711 HW2         28.3180     2.5020     5.0490 HW2           1 RES     
   12712 OW          48.2820    20.9740     9.8020 OW            1 RES     
   12713 HW1         47.4940    21.4500     9.4140 HW1           1 RES     
   12714 HW2         49.1220    21.3230     9.3860 HW2           1 RES     
   12715 OW          27.7320    51.0480     5.0090 OW            1 RES     
   12716 HW1         28.2680    50.2070     5.0680 HW1           1 RES     
   12717 HW2         28.3410    51.8380     5.0860 HW2           1 RES     
   12718 OW          19.9990    15.5600    13.9780 OW            1 RES     
   12719 HW1         19.6580    16.4730    13.7560 HW1           1 RES     
   12720 HW2         20.9720    15.6130    14.2040 HW2           1 RES     
   12721 OW          29.3400    20.7040     5.4710 OW            1 RES     
   12722 HW1         30.1400    21.2100     5.1500 HW1           1 RES     
   12723 HW2         28.5380    20.9760     4.9380 HW2           1 RES     
   12724 OW          16.2310    11.1690     2.9900 OW            1 RES     
   12725 HW1         15.7830    10.3650     3.3780 HW1           1 RES     
   12726 HW2         16.5000    11.7900     3.7270 HW2           1 RES     
   12727 OW          17.7300     7.4890     3.5500 OW            1 RES     
   12728 HW1         17.2780     8.2190     3.0390 HW1           1 RES     
   12729 HW2         18.7040     7.6970     3.6400 HW2           1 RES     
   12730 OW          53.3400    51.6660    12.0400 OW            1 RES     
   12731 HW1         53.5530    52.6400    12.1110 HW1           1 RES     
   12732 HW2         52.4880    51.5470    11.5290 HW2           1 RES     
   12733 OW           2.5230    17.8720     2.5110 OW            1 RES     
   12734 HW1          2.6550    16.9020     2.7150 HW1           1 RES     
   12735 HW2          3.4020    18.3470     2.5650 HW2           1 RES     
   12736 OW           9.1020    23.9200    10.3430 OW            1 RES     
   12737 HW1          8.6730    24.8180    10.2540 HW1           1 RES     
   12738 HW2          9.9250    23.9980    10.9070 HW2           1 RES     
   12739 OW          20.0810     3.8560    11.8890 OW            1 RES     
   12740 HW1         20.9370     3.3410    11.8920 HW1           1 RES     
   12741 HW2         20.2810     4.8360    11.8880 HW2           1 RES     
   12742 OW          49.0110    19.1480    10.7890 OW            1 RES     
   12743 HW1         49.2880    18.2510    10.4460 HW1           1 RES     
   12744 HW2         49.5330    19.3640    11.6150 HW2           1 RES     
   12745 OW          34.7390    38.7340    12.1450 OW            1 RES     
   12746 HW1         34.3810    37.9540    12.6580 HW1           1 RES     
   12747 HW2         35.7380    38.7320    12.1890 HW2           1 RES     
   12748 OW          31.4250    38.1760     6.4730 OW            1 RES     
   12749 HW1         30.7540    38.8200     6.8390 HW1           1 RES     
   12750 HW2         32.3420    38.4480     6.7640 HW2           1 RES     
   12751 OW           5.0210    40.9000    11.2750 OW            1 RES     
   12752 HW1          5.3870    41.7480    10.8940 HW1           1 RES     
   12753 HW2          4.2440    40.5940    10.7250 HW2           1 RES     
   12754 OW          40.0200    39.9540    11.4190 OW            1 RES     
   12755 HW1         39.1810    40.2680    10.9760 HW1           1 RES     
   12756 HW2         40.7900    40.0600    10.7900 HW2           1 RES     
   12757 OW          14.7690    24.9910     8.5120 OW            1 RES     
   12758 HW1         14.4590    25.0780     7.5660 HW1           1 RES     
   12759 HW2         14.8470    25.8990     8.9240 HW2           1 RES     
   12760 OW          30.5570    46.7440     6.4220 OW            1 RES     
   12761 HW1         29.9850    47.3100     5.8300 HW1           1 RES     
   12762 HW2         29.9840    46.0830     6.9070 HW2           1 RES     
   12763 OW           9.7280    12.5740    11.5100 OW            1 RES     
   12764 HW1          9.9220    13.5540    11.4980 HW1           1 RES     
   12765 HW2          9.4190    12.3060    12.4220 HW2           1 RES     
   12766 OW          20.3380    17.8350     8.9880 OW            1 RES     
   12767 HW1         20.3700    18.7290     8.5440 HW1           1 RES     
   12768 HW2         19.4640    17.7290     9.4640 HW2           1 RES     
   12769 OW          34.3480    36.6040    10.2300 OW            1 RES     
   12770 HW1         33.8100    36.4890    11.0650 HW1           1 RES     
   12771 HW2         35.0570    35.9000    10.1900 HW2           1 RES     
   12772 OW          21.7790    49.2160     5.3730 OW            1 RES     
   12773 HW1         22.5550    48.7730     4.9250 HW1           1 RES     
   12774 HW2         21.0000    48.5880     5.3900 HW2           1 RES     
   12775 OW          40.3040    22.9210     3.2620 OW            1 RES     
   12776 HW1         40.9170    23.1270     2.5000 HW1           1 RES     
   12777 HW2         40.2690    23.7040     3.8840 HW2           1 RES     
   12778 OW           7.5670    45.3930     7.2190 OW            1 RES     
   12779 HW1          8.5400    45.1660     7.2050 HW1           1 RES     
   12780 HW2          7.0270    44.5510     7.2100 HW2           1 RES     
   12781 OW          33.1710     3.7030     8.2180 OW            1 RES     
   12782 HW1         32.8100     4.5940     7.9460 HW1           1 RES     
   12783 HW2         34.0260     3.8280     8.7210 HW2           1 RES     
   12784 OW          25.0690    41.9580     8.5340 OW            1 RES     
   12785 HW1         25.3720    42.7850     9.0070 HW1           1 RES     
   12786 HW2         24.1020    42.0480     8.2920 HW2           1 RES     
   12787 OW          36.5880    53.8870     5.8430 OW            1 RES     
   12788 HW1         36.1560    54.7860     5.9060 HW1           1 RES     
   12789 HW2         37.5680    53.9750     6.0250 HW2           1 RES     
   12790 OW          49.6340    47.8230    11.4670 OW            1 RES     
   12791 HW1         50.5420    47.4050    11.4700 HW1           1 RES     
   12792 HW2         49.7260    48.8190    11.4400 HW2           1 RES     
   12793 OW          33.1860    42.8090    11.6970 OW            1 RES     
   12794 HW1         32.4290    43.2960    12.1310 HW1           1 RES     
   12795 HW2         33.8890    42.6090    12.3800 HW2           1 RES     
   12796 OW          32.5880    22.2820     6.1260 OW            1 RES     
   12797 HW1         31.7850    22.1250     6.7000 HW1           1 RES     
   12798 HW2         32.7440    21.4830     5.5450 HW2           1 RES     
   12799 OW          14.4820    21.7560     4.9980 OW            1 RES     
   12800 HW1         15.0150    22.0350     5.7960 HW1           1 RES     
   12801 HW2         15.0080    21.9350     4.1660 HW2           1 RES     
   12802 OW          32.4960    44.0530     5.6260 OW            1 RES     
   12803 HW1         32.1700    44.5120     6.4520 HW1           1 RES     
   12804 HW2         31.7200    43.8500     5.0280 HW2           1 RES     
   12805 OW          31.4200    22.2210     3.4610 OW            1 RES     
   12806 HW1         30.4690    22.1120     3.1710 HW1           1 RES     
   12807 HW2         31.4520    22.7590     4.3030 HW2           1 RES     
   12808 OW          34.8190     3.8860    12.1810 OW            1 RES     
   12809 HW1         34.5730     2.9700    12.4940 HW1           1 RES     
   12810 HW2         34.6310     3.9660    11.2010 HW2           1 RES     
   12811 OW          29.2200     4.4420     7.5230 OW            1 RES     
   12812 HW1         30.1180     4.1310     7.2120 HW1           1 RES     
   12813 HW2         29.2090     5.4410     7.5660 HW2           1 RES     
   12814 OW          39.0120    32.7660     9.2780 OW            1 RES     
   12815 HW1         38.4930    33.2290     8.5610 HW1           1 RES     
   12816 HW2         39.0540    31.7860     9.0820 HW2           1 RES     
   12817 OW          51.7000    41.7100    13.3290 OW            1 RES     
   12818 HW1         51.6160    41.2340    14.2030 HW1           1 RES     
   12819 HW2         52.6660    41.7940    13.0850 HW2           1 RES     
   12820 OW          28.8250    36.1620     7.8880 OW            1 RES     
   12821 HW1         28.9290    36.0040     8.8690 HW1           1 RES     
   12822 HW2         28.4770    35.3330     7.4500 HW2           1 RES     
   12823 OW           5.8500    53.8150     5.5640 OW            1 RES     
   12824 HW1          6.2210    54.3960     6.2890 HW1           1 RES     
   12825 HW2          6.4430    53.8650     4.7600 HW2           1 RES     
   12826 OW          47.4280    26.2750    12.4710 OW            1 RES     
   12827 HW1         48.1900    25.8500    11.9830 HW1           1 RES     
   12828 HW2         46.7580    25.5750    12.7190 HW2           1 RES     
   12829 OW          28.8610    30.3330     4.2660 OW            1 RES     
   12830 HW1         28.2290    29.6930     3.8320 HW1           1 RES     
   12831 HW2         29.2060    29.9370     5.1170 HW2           1 RES     
   12832 OW          19.1700    24.3520    12.4300 OW            1 RES     
   12833 HW1         19.8710    24.0650    11.7790 HW1           1 RES     
   12834 HW2         18.3180    23.8630    12.2410 HW2           1 RES     
   12835 OW          45.7640    30.9960    12.1500 OW            1 RES     
   12836 HW1         46.7030    31.3410    12.1460 HW1           1 RES     
   12837 HW2         45.1350    31.7430    12.3670 HW2           1 RES     
   12838 OW           9.5740    15.6710    12.1240 OW            1 RES     
   12839 HW1         10.0870    15.7360    11.2690 HW1           1 RES     
   12840 HW2         10.1720    15.9000    12.8920 HW2           1 RES     
   12841 OW          53.0810     8.2570     5.2390 OW            1 RES     
   12842 HW1         53.8800     8.2010     5.8370 HW1           1 RES     
   12843 HW2         52.9160     9.2120     4.9920 HW2           1 RES     
   12844 OW           4.7370    35.4910     4.2430 OW            1 RES     
   12845 HW1          5.3480    36.2600     4.4280 HW1           1 RES     
   12846 HW2          3.8770    35.8310     3.8630 HW2           1 RES     
   12847 OW          54.4200    15.8650     7.8370 OW            1 RES     
   12848 HW1         54.7790    15.9910     8.7610 HW1           1 RES     
   12849 HW2         54.7440    14.9930     7.4690 HW2           1 RES     
   12850 OW           3.4850     7.5570    10.1220 OW            1 RES     
   12851 HW1          3.8150     6.7220    10.5610 HW1           1 RES     
   12852 HW2          2.5010     7.6500    10.2770 HW2           1 RES     
   12853 OW           4.7330    38.3570     3.3650 OW            1 RES     
   12854 HW1          4.2270    39.2060     3.5140 HW1           1 RES     
   12855 HW2          5.5860    38.3790     3.8860 HW2           1 RES     
   12856 OW          23.6390    32.7550    14.1650 OW            1 RES     
   12857 HW1         22.8660    32.1220    14.1350 HW1           1 RES     
   12858 HW2         23.3040    33.6950    14.0970 HW2           1 RES     
   12859 OW          48.0970    33.2270    13.6650 OW            1 RES     
   12860 HW1         49.0050    32.8510    13.4840 HW1           1 RES     
   12861 HW2         47.5670    32.5720    14.2050 HW2           1 RES     
   12862 OW          23.0440     7.5240     5.0320 OW            1 RES     
   12863 HW1         23.7700     8.1360     4.7210 HW1           1 RES     
   12864 HW2         23.2920     6.5780     4.8220 HW2           1 RES     
   12865 OW          49.9680    15.0730    10.6560 OW            1 RES     
   12866 HW1         49.6590    14.1330    10.7990 HW1           1 RES     
   12867 HW2         50.6860    15.0860     9.9600 HW2           1 RES     
   12868 OW          40.3090    17.6430     4.3000 OW            1 RES     
   12869 HW1         40.4610    18.4690     4.8430 HW1           1 RES     
   12870 HW2         41.0220    17.5660     3.6030 HW2           1 RES     
   12871 OW          27.6100     5.2260     4.8910 OW            1 RES     
   12872 HW1         27.2260     4.3550     4.5840 HW1           1 RES     
   12873 HW2         28.2920     5.0580     5.6040 HW2           1 RES     
   12874 OW          30.2300    28.3310    11.1250 OW            1 RES     
   12875 HW1         30.1540    29.3060    10.9180 HW1           1 RES     
   12876 HW2         31.0450    28.1710    11.6830 HW2           1 RES     
   12877 OW          13.0010    22.8870    14.2030 OW            1 RES     
   12878 HW1         13.9350    22.5320    14.2050 HW1           1 RES     
   12879 HW2         13.0210    23.8810    14.0980 HW2           1 RES     
   12880 OW          45.2540    38.8450     7.7130 OW            1 RES     
   12881 HW1         45.6810    39.6290     7.2650 HW1           1 RES     
   12882 HW2         44.6210    38.4020     7.0780 HW2           1 RES     
   12883 OW          23.2830    38.3700    14.0540 OW            1 RES     
   12884 HW1         22.2970    38.3860    13.8940 HW1           1 RES     
   12885 HW2         23.5810    37.4270    14.2050 HW2           1 RES     
   12886 OW          22.6670    34.1060    11.9250 OW            1 RES     
   12887 HW1         23.2090    34.7150    11.3470 HW1           1 RES     
   12888 HW2         21.7900    34.5390    12.1360 HW2           1 RES     
   12889 OW          35.8170    40.1660     8.9520 OW            1 RES     
   12890 HW1         36.3170    40.4040     8.1200 HW1           1 RES     
   12891 HW2         36.4360    39.7200     9.5980 HW2           1 RES     
   12892 OW          43.6230    43.8100    11.9870 OW            1 RES     
   12893 HW1         44.3760    44.3340    12.3830 HW1           1 RES     
   12894 HW2         43.9250    42.8730    11.8100 HW2           1 RES     
   12895 OW          46.2690    45.9900    14.2050 OW            1 RES     
   12896 HW1         45.8350    45.6530    13.3700 HW1           1 RES     
   12897 HW2         46.4210    46.9750    14.1280 HW2           1 RES     
   12898 OW          54.5160    45.8350     5.3280 OW            1 RES     
   12899 HW1         54.7860    45.7280     4.3720 HW1           1 RES     
   12900 HW2         54.3130    46.7960     5.5130 HW2           1 RES     
   12901 OW          19.4540    46.4350     9.1330 OW            1 RES     
   12902 HW1         18.8560    46.8020     8.4220 HW1           1 RES     
   12903 HW2         18.9830    46.4670    10.0150 HW2           1 RES     
   12904 OW          53.1540    20.3650     5.1490 OW            1 RES     
   12905 HW1         53.9690    19.8460     5.4020 HW1           1 RES     
   12906 HW2         52.3600    19.7570     5.1390 HW2           1 RES     
   12907 OW          28.6740    47.4450    13.4270 OW            1 RES     
   12908 HW1         28.8360    46.4720    13.5880 HW1           1 RES     
   12909 HW2         27.6890    47.6190    13.3940 HW2           1 RES     
   12910 OW          38.5170    12.2360    10.7240 OW            1 RES     
   12911 HW1         39.2020    12.6700    10.1400 HW1           1 RES     
   12912 HW2         38.6510    12.5290    11.6700 HW2           1 RES     
   12913 OW          31.7790     9.3360     2.7940 OW            1 RES     
   12914 HW1         32.2940    10.1790     2.6440 HW1           1 RES     
   12915 HW2         32.3500     8.5490     2.5570 HW2           1 RES     
   12916 OW          52.7170    41.3790     4.5720 OW            1 RES     
   12917 HW1         53.5820    41.8790     4.5990 HW1           1 RES     
   12918 HW2         51.9550    42.0280     4.5830 HW2           1 RES     
   12919 OW           8.7250    52.9050     3.0650 OW            1 RES     
   12920 HW1          8.7060    53.8970     3.1810 HW1           1 RES     
   12921 HW2          8.9140    52.4690     3.9450 HW2           1 RES     
   12922 OW          32.8540    13.2420     5.7140 OW            1 RES     
   12923 HW1         32.4610    13.7570     4.9530 HW1           1 RES     
   12924 HW2         33.2140    12.3720     5.3760 HW2           1 RES     
   12925 OW          42.5180    13.1160     5.1170 OW            1 RES     
   12926 HW1         41.5770    12.9270     5.3980 HW1           1 RES     
   12927 HW2         42.5520    13.9880     4.6280 HW2           1 RES     
   12928 OW          16.6570    46.7360    10.7270 OW            1 RES     
   12929 HW1         16.2030    46.6750    11.6150 HW1           1 RES     
   12930 HW2         17.2050    47.5730    10.6890 HW2           1 RES     
   12931 OW          42.3340    33.5930    13.5100 OW            1 RES     
   12932 HW1         41.8290    33.7870    12.6700 HW1           1 RES     
   12933 HW2         42.7980    32.7100    13.4250 HW2           1 RES     
   12934 OW          12.5310    17.0830     5.8520 OW            1 RES     
   12935 HW1         12.9200    16.7370     6.7050 HW1           1 RES     
   12936 HW2         11.9240    16.3930     5.4580 HW2           1 RES     
   12937 OW          28.6320    23.0050    10.5120 OW            1 RES     
   12938 HW1         29.5190    22.8230    10.9350 HW1           1 RES     
   12939 HW2         28.7700    23.4080     9.6070 HW2           1 RES     
   12940 OW          29.0850    13.5280    12.5260 OW            1 RES     
   12941 HW1         28.5610    12.7930    12.0970 HW1           1 RES     
   12942 HW2         28.4670    14.1210    13.0430 HW2           1 RES     
   12943 OW          18.5970    12.6610    10.3450 OW            1 RES     
   12944 HW1         17.7950    12.1070    10.1290 HW1           1 RES     
   12945 HW2         19.3210    12.0740    10.7080 HW2           1 RES     
   12946 OW          46.6720    12.6600    13.9520 OW            1 RES     
   12947 HW1         47.3350    11.9510    13.7140 HW1           1 RES     
   12948 HW2         45.8030    12.2340    14.2040 HW2           1 RES     
   12949 OW           6.6630    47.9690     8.4540 OW            1 RES     
   12950 HW1          6.1630    47.2420     8.9240 HW1           1 RES     
   12951 HW2          6.4530    48.8490     8.8810 HW2           1 RES     
   12952 OW          24.1490    32.6520     6.5580 OW            1 RES     
   12953 HW1         25.0300    32.2310     6.3430 HW1           1 RES     
   12954 HW2         23.4820    31.9380     6.7740 HW2           1 RES     
   12955 OW          13.5880    33.2160     4.0320 OW            1 RES     
   12956 HW1         13.5380    32.3670     3.5080 HW1           1 RES     
   12957 HW2         13.5370    33.9970     3.4090 HW2           1 RES     
   12958 OW          27.8840    14.5190    10.9130 OW            1 RES     
   12959 HW1         28.4510    15.2470    10.5270 HW1           1 RES     
   12960 HW2         27.1820    14.2570    10.2510 HW2           1 RES     
   12961 OW          11.7230     3.5670    13.1820 OW            1 RES     
   12962 HW1         11.1780     3.9080    13.9480 HW1           1 RES     
   12963 HW2         12.2820     4.3100    12.8140 HW2           1 RES     
   12964 OW          28.6460    16.3110     8.4120 OW            1 RES     
   12965 HW1         29.3950    16.7600     7.9260 HW1           1 RES     
   12966 HW2         28.3540    15.5030     7.9000 HW2           1 RES     
   12967 OW          31.9280    46.0340     4.8550 OW            1 RES     
   12968 HW1         31.2760    45.9480     4.1010 HW1           1 RES     
   12969 HW2         32.8600    46.0130     4.4940 HW2           1 RES     
   12970 OW          51.7520    35.2780     5.9120 OW            1 RES     
   12971 HW1         51.7020    34.8080     6.7930 HW1           1 RES     
   12972 HW2         51.6090    34.6190     5.1730 HW2           1 RES     
   12973 OW          29.5620    10.5970     8.9780 OW            1 RES     
   12974 HW1         30.1900     9.9420     9.3960 HW1           1 RES     
   12975 HW2         29.6520    10.5590     7.9830 HW2           1 RES     
   12976 OW          16.4200    51.8830    10.6710 OW            1 RES     
   12977 HW1         15.5050    51.6260    10.9810 HW1           1 RES     
   12978 HW2         17.0810    51.7070    11.4000 HW2           1 RES     
   12979 OW           2.5020    15.5330     5.2970 OW            1 RES     
   12980 HW1          3.1460    16.0440     4.7280 HW1           1 RES     
   12981 HW2          2.9090    15.3670     6.1960 HW2           1 RES     
   12982 OW          48.2950    35.8150    12.3620 OW            1 RES     
   12983 HW1         48.1080    34.8680    12.1040 HW1           1 RES     
   12984 HW2         47.4840    36.3750    12.1910 HW2           1 RES     
   12985 OW          13.5530    53.8930     3.3710 OW            1 RES     
   12986 HW1         12.8010    53.2980     3.0920 HW1           1 RES     
   12987 HW2         14.0180    53.4950     4.1620 HW2           1 RES     
   12988 OW          21.7020    22.8490    12.1170 OW            1 RES     
   12989 HW1         22.6150    23.2250    11.9630 HW1           1 RES     
   12990 HW2         21.4960    22.1730    11.4080 HW2           1 RES     
   12991 OW           3.5510    18.0460    11.7390 OW            1 RES     
   12992 HW1          2.6620    18.4930    11.8260 HW1           1 RES     
   12993 HW2          4.2280    18.7090    11.4190 HW2           1 RES     
   12994 OW          49.9340    47.0740     2.5060 OW            1 RES     
   12995 HW1         49.2130    46.3830     2.5250 HW1           1 RES     
   12996 HW2         49.5240    47.9860     2.5010 HW2           1 RES     
   12997 OW           7.3110    40.7500     9.9180 OW            1 RES     
   12998 HW1          8.0580    41.3780     9.7050 HW1           1 RES     
   12999 HW2          7.6660    39.9710    10.4350 HW2           1 RES     
   13000 OW          11.7980    38.4430     2.5540 OW            1 RES     
   13001 HW1         12.4530    37.7010     2.6880 HW1           1 RES     
   13002 HW2         12.2610    39.3220     2.6680 HW2           1 RES     
   13003 OW          53.9720    39.2080     9.8860 OW            1 RES     
   13004 HW1         54.7750    39.8010     9.8370 HW1           1 RES     
   13005 HW2         54.2640    38.2520     9.9240 HW2           1 RES     
   13006 OW          26.1990    40.1590     5.6980 OW            1 RES     
   13007 HW1         25.9660    41.1030     5.4640 HW1           1 RES     
   13008 HW2         25.3900    39.6960     6.0610 HW2           1 RES     
   13009 OW          15.5740    33.5140    12.6160 OW            1 RES     
   13010 HW1         16.3470    33.9640    13.0620 HW1           1 RES     
   13011 HW2         15.9110    32.9030    11.8990 HW2           1 RES     
   13012 OW          32.0240     9.6400     5.6800 OW            1 RES     
   13013 HW1         32.1890     8.7070     5.3620 HW1           1 RES     
   13014 HW2         32.5810    10.2770     5.1470 HW2           1 RES     
   13015 OW           3.5000    14.1870     3.0280 OW            1 RES     
   13016 HW1          3.3130    13.9640     3.9840 HW1           1 RES     
   13017 HW2          2.6510    14.1370     2.5020 HW2           1 RES     
   13018 OW          21.6780    50.7990     7.1480 OW            1 RES     
   13019 HW1         20.8040    50.3280     7.0310 HW1           1 RES     
   13020 HW2         22.2090    50.3430     7.8620 HW2           1 RES     
   13021 OW           6.3730    31.8520     9.2760 OW            1 RES     
   13022 HW1          5.6700    31.2590     8.8840 HW1           1 RES     
   13023 HW2          7.1690    31.8710     8.6720 HW2           1 RES     
   13024 OW           4.5530    23.5110    11.3690 OW            1 RES     
   13025 HW1          4.8160    22.9190    12.1290 HW1           1 RES     
   13026 HW2          4.3810    22.9550    10.5560 HW2           1 RES     
   13027 OW          20.1330    51.1430     9.7150 OW            1 RES     
   13028 HW1         20.2800    52.1300     9.7700 HW1           1 RES     
   13029 HW2         21.0160    50.6750     9.6810 HW2           1 RES     
   13030 OW          19.6470    27.3080    12.0100 OW            1 RES     
   13031 HW1         19.2330    27.1500    11.1150 HW1           1 RES     
   13032 HW2         19.1650    26.7700    12.7010 HW2           1 RES     
   13033 OW          16.3510    18.8400    11.3150 OW            1 RES     
   13034 HW1         16.1160    19.2140    12.2110 HW1           1 RES     
   13035 HW2         16.7960    19.5470    10.7640 HW2           1 RES     
   13036 OW          30.3760     2.9730    12.2320 OW            1 RES     
   13037 HW1         29.5380     2.5180    11.9340 HW1           1 RES     
   13038 HW2         30.5220     3.7970    11.6830 HW2           1 RES     
   13039 OW          12.9160     7.4920     3.4990 OW            1 RES     
   13040 HW1         13.9000     7.3400     3.4040 HW1           1 RES     
   13041 HW2         12.4240     6.6590     3.2440 HW2           1 RES     
   13042 OW          18.9140    10.9990    13.7140 OW            1 RES     
   13043 HW1         18.8730    10.1300    14.2050 HW1           1 RES     
   13044 HW2         18.8010    10.8350    12.7340 HW2           1 RES     
   13045 OW          36.6640    18.1790    11.7190 OW            1 RES     
   13046 HW1         36.1540    17.7890    12.4850 HW1           1 RES     
   13047 HW2         36.1070    18.1320    10.8890 HW2           1 RES     
   13048 OW          22.1840     9.0330    10.1960 OW            1 RES     
   13049 HW1         22.5380     9.5220    10.9920 HW1           1 RES     
   13050 HW2         22.5940     8.1210    10.1550 HW2           1 RES     
   13051 OW          14.6030    24.6070    12.6460 OW            1 RES     
   13052 HW1         14.3740    23.6720    12.3750 HW1           1 RES     
   13053 HW2         15.4640    24.8780    12.2150 HW2           1 RES     
   13054 OW          32.5780    29.9430    13.8490 OW            1 RES     
   13055 HW1         32.7600    29.0270    14.2050 HW1           1 RES     
   13056 HW2         31.7230    29.9360    13.3290 HW2           1 RES     
   13057 OW          20.3700    45.3030    13.4700 OW            1 RES     
   13058 HW1         19.9320    44.4200    13.6330 HW1           1 RES     
   13059 HW2         19.6940    46.0340    13.5690 HW2           1 RES     
   13060 OW          19.8540    27.1450     8.5380 OW            1 RES     
   13061 HW1         18.9230    26.8280     8.3600 HW1           1 RES     
   13062 HW2         20.5050    26.5510     8.0660 HW2           1 RES     
   13063 OW          23.0970    30.4510     5.1700 OW            1 RES     
   13064 HW1         22.3490    29.8050     5.3180 HW1           1 RES     
   13065 HW2         23.9560    30.0450     5.4830 HW2           1 RES     
   13066 OW          37.6550    46.8720     9.2760 OW            1 RES     
   13067 HW1         37.6990    47.7050     9.8260 HW1           1 RES     
   13068 HW2         36.7010    46.6700     9.0510 HW2           1 RES     
   13069 OW           4.8390    26.0380     8.3740 OW            1 RES     
   13070 HW1          5.2430    25.5430     7.6060 HW1           1 RES     
   13071 HW2          5.1980    26.9720     8.3960 HW2           1 RES     
   13072 OW          15.2090    49.6030    14.1690 OW            1 RES     
   13073 HW1         15.4810    50.1200    13.3580 HW1           1 RES     
   13074 HW2         14.2950    49.2210    14.0300 HW2           1 RES     
   13075 OW          48.9110    42.6830     9.9240 OW            1 RES     
   13076 HW1         48.8410    41.6870     9.8900 HW1           1 RES     
   13077 HW2         49.8070    42.9670     9.5820 HW2           1 RES     
   13078 OW          50.1980    35.5800    11.2830 OW            1 RES     
   13079 HW1         51.1780    35.3820    11.2830 HW1           1 RES     
   13080 HW2         50.0570    36.5700    11.2820 HW2           1 RES     
   13081 OW          16.1580    27.4930    10.4950 OW            1 RES     
   13082 HW1         15.1640    27.4060    10.5400 HW1           1 RES     
   13083 HW2         16.5690    27.0590    11.2980 HW2           1 RES     
   13084 OW          23.7010    33.1310     9.9020 OW            1 RES     
   13085 HW1         23.0450    32.5440    10.3750 HW1           1 RES     
   13086 HW2         24.5610    33.1480    10.4130 HW2           1 RES     
   13087 OW          45.2300    15.6730    10.7380 OW            1 RES     
   13088 HW1         44.4230    15.6970    11.3270 HW1           1 RES     
   13089 HW2         44.9470    15.7400     9.7810 HW2           1 RES     
   13090 OW          37.9960    46.6260     5.9430 OW            1 RES     
   13091 HW1         37.4610    47.1080     5.2500 HW1           1 RES     
   13092 HW2         37.7420    46.9580     6.8520 HW2           1 RES     
   13093 OW          25.4330    30.7870    11.0800 OW            1 RES     
   13094 HW1         24.5530    30.9590    10.6390 HW1           1 RES     
   13095 HW2         26.0770    31.5130    10.8350 HW2           1 RES     
   13096 OW          16.7640    21.3010     3.0030 OW            1 RES     
   13097 HW1         16.1240    20.7170     2.5050 HW1           1 RES     
   13098 HW2         16.8970    22.1550     2.5000 HW2           1 RES     
   13099 OW          21.4600    33.3270     9.0640 OW            1 RES     
   13100 HW1         21.8430    33.8550     8.3070 HW1           1 RES     
   13101 HW2         20.4980    33.1250     8.8780 HW2           1 RES     
   13102 OW          44.5930    44.7210     4.6440 OW            1 RES     
   13103 HW1         43.8670    45.4070     4.5990 HW1           1 RES     
   13104 HW2         44.1880    43.8120     4.7360 HW2           1 RES     
   13105 OW          29.1340    18.9160    10.4830 OW            1 RES     
   13106 HW1         29.1690    18.3650     9.6500 HW1           1 RES     
   13107 HW2         29.4180    19.8530    10.2750 HW2           1 RES     
   13108 OW           4.8570    30.4940    11.1930 OW            1 RES     
   13109 HW1          5.6670    30.0020    11.5090 HW1           1 RES     
   13110 HW2          4.9670    31.4710    11.3740 HW2           1 RES     
   13111 OW          35.0280     6.1400     3.6020 OW            1 RES     
   13112 HW1         35.7800     6.6380     4.0320 HW1           1 RES     
   13113 HW2         35.1670     5.1570     3.7230 HW2           1 RES     
   13114 OW          43.5090    16.0140     3.4960 OW            1 RES     
   13115 HW1         42.9300    16.6280     2.9610 HW1           1 RES     
   13116 HW2         44.2250    16.5440     3.9520 HW2           1 RES     
   13117 OW           4.7020    50.9940     3.7490 OW            1 RES     
   13118 HW1          5.0230    51.9400     3.7290 HW1           1 RES     
   13119 HW2          4.9610    50.5710     4.6180 HW2           1 RES     
   13120 OW          32.3740    51.1350     3.0730 OW            1 RES     
   13121 HW1         32.5150    50.1480     3.1410 HW1           1 RES     
   13122 HW2         33.0900    51.5370     2.5020 HW2           1 RES     
   13123 OW          45.7290    52.9860     3.1940 OW            1 RES     
   13124 HW1         46.4360    53.5170     3.6590 HW1           1 RES     
   13125 HW2         45.5290    52.1610     3.7220 HW2           1 RES     
   13126 OW          43.5940    34.1030     4.9110 OW            1 RES     
   13127 HW1         43.5250    34.2320     5.8990 HW1           1 RES     
   13128 HW2         42.8240    33.5500     4.5920 HW2           1 RES     
   13129 OW          28.3390    27.8060     9.6240 OW            1 RES     
   13130 HW1         27.3930    27.4850     9.6510 HW1           1 RES     
   13131 HW2         28.3520    28.8020     9.5420 HW2           1 RES     
   13132 OW           4.8010    16.4470     2.8870 OW            1 RES     
   13133 HW1          4.7930    17.0570     3.6790 HW1           1 RES     
   13134 HW2          5.7270    16.3950     2.5140 HW2           1 RES     
   13135 OW          43.4090    30.8040     4.3550 OW            1 RES     
   13136 HW1         43.9170    31.6630     4.2980 HW1           1 RES     
   13137 HW2         44.0480    30.0360     4.3200 HW2           1 RES     
   13138 OW          26.8740    37.5870     7.8640 OW            1 RES     
   13139 HW1         27.2700    38.4040     7.4450 HW1           1 RES     
   13140 HW2         27.2740    37.4500     8.7700 HW2           1 RES     
   13141 OW          25.3390     8.4010    14.1840 OW            1 RES     
   13142 HW1         26.0480     7.6970    14.2050 HW1           1 RES     
   13143 HW2         24.4380     7.9680    14.1610 HW2           1 RES     
   13144 OW          21.7140    15.7760    10.4150 OW            1 RES     
   13145 HW1         21.8490    16.7280    10.1420 HW1           1 RES     
   13146 HW2         22.5690    15.2700    10.2950 HW2           1 RES     
   13147 OW          15.9490    17.5300     6.7770 OW            1 RES     
   13148 HW1         15.1030    16.9970     6.7820 HW1           1 RES     
   13149 HW2         16.7340    16.9100     6.7730 HW2           1 RES     
   13150 OW           7.6090    15.1300    12.9540 OW            1 RES     
   13151 HW1          7.5230    14.8820    11.9900 HW1           1 RES     
   13152 HW2          7.4590    16.1130    13.0610 HW2           1 RES     
   13153 OW          12.8750    44.1920     2.9960 OW            1 RES     
   13154 HW1         12.7380    45.0940     2.5880 HW1           1 RES     
   13155 HW2         12.3310    43.5150     2.5000 HW2           1 RES     
   13156 OW          10.5780    44.5570     4.3420 OW            1 RES     
   13157 HW1         11.5180    44.6300     4.6720 HW1           1 RES     
   13158 HW2         10.1440    43.7510     4.7460 HW2           1 RES     
   13159 OW          50.1000    53.1800     7.6840 OW            1 RES     
   13160 HW1         49.1080    53.1890     7.5570 HW1           1 RES     
   13161 HW2         50.4630    54.1010     7.5430 HW2           1 RES     
   13162 OW          29.3480    42.2560    10.9920 OW            1 RES     
   13163 HW1         28.8490    41.4210    10.7630 HW1           1 RES     
   13164 HW2         30.1850    42.3050    10.4470 HW2           1 RES     
   13165 OW          45.8790    43.5430    14.1730 OW            1 RES     
   13166 HW1         45.8620    42.5440    14.1850 HW1           1 RES     
   13167 HW2         46.8270    43.8610    14.2030 HW2           1 RES     
   13168 OW          23.4520    20.4400     7.3500 OW            1 RES     
   13169 HW1         22.7980    21.1950     7.3580 HW1           1 RES     
   13170 HW2         24.2990    20.7370     6.9080 HW2           1 RES     
   13171 OW          11.1290    10.7040     8.1630 OW            1 RES     
   13172 HW1         11.8370    10.2470     8.6990 HW1           1 RES     
   13173 HW2         10.2710    10.1940     8.2380 HW2           1 RES     
   13174 OW          41.3770    33.8220     7.2650 OW            1 RES     
   13175 HW1         41.4940    34.6860     7.7530 HW1           1 RES     
   13176 HW2         40.4360    33.7500     6.9340 HW2           1 RES     
   13177 OW           6.8400    28.9860    13.7130 OW            1 RES     
   13178 HW1          7.3590    28.1530    13.9030 HW1           1 RES     
   13179 HW2          5.9440    28.7430    13.3400 HW2           1 RES     
   13180 OW           5.0370    53.5090    10.4880 OW            1 RES     
   13181 HW1          4.2480    53.1920     9.9630 HW1           1 RES     
   13182 HW2          5.6240    54.0690     9.9020 HW2           1 RES     
   13183 OW          34.7730    38.0000     8.1960 OW            1 RES     
   13184 HW1         34.1910    38.7540     8.4970 HW1           1 RES     
   13185 HW2         35.5140    37.8660     8.8560 HW2           1 RES     
   13186 OW          45.9350    42.0600     3.6660 OW            1 RES     
   13187 HW1         45.2020    41.7330     4.2610 HW1           1 RES     
   13188 HW2         45.7470    43.0040     3.3930 HW2           1 RES     
   13189 OW          52.6990    27.6930     9.1010 OW            1 RES     
   13190 HW1         51.9580    27.3470     8.5270 HW1           1 RES     
   13191 HW2         53.0620    26.9490     9.6630 HW2           1 RES     
   13192 OW          10.4250    15.3090     7.5820 OW            1 RES     
   13193 HW1         11.3130    14.8850     7.7540 HW1           1 RES     
   13194 HW2          9.7600    14.9740     8.2500 HW2           1 RES     
   13195 OW          39.2640    31.9590    11.3100 OW            1 RES     
   13196 HW1         39.3860    30.9720    11.4090 HW1           1 RES     
   13197 HW2         38.2880    32.1720    11.2690 HW2           1 RES     
   13198 OW           9.6480     9.7070    10.8210 OW            1 RES     
   13199 HW1         10.3520    10.3200    10.4620 HW1           1 RES     
   13200 HW2          9.8560     9.4810    11.7730 HW2           1 RES     
   13201 OW          30.2120     5.6430    13.4470 OW            1 RES     
   13202 HW1         29.9810     6.3990    14.0580 HW1           1 RES     
   13203 HW2         30.5760     6.0070    12.5890 HW2           1 RES     
   13204 OW          29.2910    49.9650    13.6530 OW            1 RES     
   13205 HW1         28.2950    49.9580    13.7310 HW1           1 RES     
   13206 HW2         29.5700    50.6700    13.0000 HW2           1 RES     
   13207 OW          49.8100    36.1500     4.4600 OW            1 RES     
   13208 HW1         50.7510    36.4730     4.3590 HW1           1 RES     
   13209 HW2         49.6790    35.7890     5.3830 HW2           1 RES     
   13210 OW          43.9520    11.1250    13.7740 OW            1 RES     
   13211 HW1         43.3410    10.3470    13.6330 HW1           1 RES     
   13212 HW2         43.4330    11.9760    13.6980 HW2           1 RES     
   13213 OW          20.0130    54.6370    11.7790 OW            1 RES     
   13214 HW1         19.4910    54.5410    10.9320 HW1           1 RES     
   13215 HW2         20.5710    53.8190    11.9210 HW2           1 RES     
   13216 OW          34.9190    31.5490    14.2040 OW            1 RES     
   13217 HW1         34.2120    31.3790    13.5190 HW1           1 RES     
   13218 HW2         35.7770    31.7870    13.7470 HW2           1 RES     
   13219 OW          16.6770     7.6440     9.9490 OW            1 RES     
   13220 HW1         16.2480     7.2670     9.1290 HW1           1 RES     
   13221 HW2         16.1520     7.3710    10.7550 HW2           1 RES     
   13222 OW          23.4960    22.1840     9.7880 OW            1 RES     
   13223 HW1         24.0420    21.7090     9.0980 HW1           1 RES     
   13224 HW2         24.1030    22.6790    10.4100 HW2           1 RES     
   13225 OW          28.6360    24.7570     3.8410 OW            1 RES     
   13226 HW1         28.6130    23.9440     4.4220 HW1           1 RES     
   13227 HW2         27.7550    25.2270     3.8890 HW2           1 RES     
   13228 OW          19.7470    37.1810     3.5340 OW            1 RES     
   13229 HW1         20.4730    37.2520     2.8500 HW1           1 RES     
   13230 HW2         20.0700    37.5540     4.4040 HW2           1 RES     
   13231 OW          10.2610    18.3660     8.3780 OW            1 RES     
   13232 HW1          9.4500    18.8330     8.0290 HW1           1 RES     
   13233 HW2         10.0250    17.4250     8.6220 HW2           1 RES     
   13234 OW          40.7590    53.7470    10.2080 OW            1 RES     
   13235 HW1         40.4120    54.6060    10.5850 HW1           1 RES     
   13236 HW2         40.1170    53.0080    10.4150 HW2           1 RES     
   13237 OW          47.4060    32.8730     7.4760 OW            1 RES     
   13238 HW1         48.1200    33.0090     6.7910 HW1           1 RES     
   13239 HW2         47.0870    33.7610     7.8080 HW2           1 RES     
   13240 OW          52.2970    38.5330     8.6300 OW            1 RES     
   13241 HW1         51.5490    38.7010     7.9880 HW1           1 RES     
   13242 HW2         52.3890    37.5490     8.7850 HW2           1 RES     
   13243 OW          48.3670    35.9440     7.3680 OW            1 RES     
   13244 HW1         48.7990    35.0450     7.3010 HW1           1 RES     
   13245 HW2         49.0680    36.6560     7.3130 HW2           1 RES     
   13246 OW          51.8740     4.8260     3.3880 OW            1 RES     
   13247 HW1         52.6600     4.2490     3.6080 HW1           1 RES     
   13248 HW2         51.1490     4.6730     4.0590 HW2           1 RES     
   13249 OW          13.5760    17.6820    10.0790 OW            1 RES     
   13250 HW1         13.3080    17.7810    11.0370 HW1           1 RES     
   13251 HW2         13.0800    18.3480     9.5230 HW2           1 RES     
   13252 OW          32.1770    36.9340     3.5600 OW            1 RES     
   13253 HW1         31.7390    36.0790     3.8360 HW1           1 RES     
   13254 HW2         31.8750    37.1830     2.6400 HW2           1 RES     
   13255 OW          32.8210    52.8420     7.6370 OW            1 RES     
   13256 HW1         32.8080    52.0210     8.2060 HW1           1 RES     
   13257 HW2         33.7250    53.2680     7.6860 HW2           1 RES     
   13258 OW          21.0450    12.4390     4.3790 OW            1 RES     
   13259 HW1         20.2150    12.3010     4.9190 HW1           1 RES     
   13260 HW2         21.1640    13.4150     4.1940 HW2           1 RES     
   13261 OW          49.2940    54.3040     5.5960 OW            1 RES     
   13262 HW1         48.5960    54.7810     6.1280 HW1           1 RES     
   13263 HW2         49.4430    54.7850     4.7320 HW2           1 RES     
   13264 OW          21.2530    45.3100     8.5490 OW            1 RES     
   13265 HW1         20.6450    45.1900     7.7650 HW1           1 RES     
   13266 HW2         21.7950    46.1420     8.4270 HW2           1 RES     
   13267 OW          42.7870    37.4460     6.2790 OW            1 RES     
   13268 HW1         42.8900    38.2720     5.7260 HW1           1 RES     
   13269 HW2         43.4120    36.7400     5.9460 HW2           1 RES     
   13270 OW          22.7020    40.2340     3.4100 OW            1 RES     
   13271 HW1         21.8450    39.7210     3.4600 HW1           1 RES     
   13272 HW2         22.5070    41.2140     3.4560 HW2           1 RES     
   13273 OW          12.4210    53.4230    10.6290 OW            1 RES     
   13274 HW1         12.7930    54.3500    10.6220 HW1           1 RES     
   13275 HW2         11.4220    53.4640    10.6450 HW2           1 RES     
   13276 OW          29.8420    16.8130    13.6870 OW            1 RES     
   13277 HW1         29.0940    16.1550    13.6110 HW1           1 RES     
   13278 HW2         29.4830    17.7410    13.5800 HW2           1 RES     
   13279 OW          48.8030     3.3830    11.6790 OW            1 RES     
   13280 HW1         49.4490     3.9660    12.1690 HW1           1 RES     
   13281 HW2         48.7970     3.6330    10.7100 HW2           1 RES     
   13282 OW          33.4800    31.7780    10.8390 OW            1 RES     
   13283 HW1         33.5090    31.3470     9.9380 HW1           1 RES     
   13284 HW2         34.3280    31.5800    11.3320 HW2           1 RES     
   13285 OW          26.7330    13.0490     3.9180 OW            1 RES     
   13286 HW1         26.3650    12.3900     3.2620 HW1           1 RES     
   13287 HW2         26.0980    13.1480     4.6840 HW2           1 RES     
   13288 OW           4.6500     3.2740     6.0030 OW            1 RES     
   13289 HW1          5.0060     2.5000     5.4810 HW1           1 RES     
   13290 HW2          3.8440     3.6460     5.5410 HW2           1 RES     
   13291 OW          37.0930    20.6620     3.3020 OW            1 RES     
   13292 HW1         37.8450    20.8370     3.9370 HW1           1 RES     
   13293 HW2         37.4400    20.1740     2.5000 HW2           1 RES     
   13294 OW          25.9590    17.0120    13.6020 OW            1 RES     
   13295 HW1         25.3860    17.5690    14.2030 HW1           1 RES     
   13296 HW2         25.4980    16.1450    13.4100 HW2           1 RES     
   13297 OW           3.9930    22.4190     5.8220 OW            1 RES     
   13298 HW1          3.2010    21.9960     6.2630 HW1           1 RES     
   13299 HW2          4.8330    22.0270     6.1980 HW2           1 RES     
   13300 OW          42.3360    30.3060     7.3340 OW            1 RES     
   13301 HW1         42.9990    29.8750     6.7220 HW1           1 RES     
   13302 HW2         42.7100    31.1670     7.6790 HW2           1 RES     
   13303 OW          33.6810    16.8200     4.5700 OW            1 RES     
   13304 HW1         33.5150    16.2040     3.8000 HW1           1 RES     
   13305 HW2         33.5410    17.7660     4.2760 HW2           1 RES     
   13306 OW          12.0870    24.3910     5.7630 OW            1 RES     
   13307 HW1         11.3710    24.9540     5.3520 HW1           1 RES     
   13308 HW2         12.3870    24.8080     6.6220 HW2           1 RES     
   13309 OW          34.0640    49.4660     6.8880 OW            1 RES     
   13310 HW1         34.4420    49.6620     7.7910 HW1           1 RES     
   13311 HW2         33.2990    48.8270     6.9770 HW2           1 RES     
   13312 OW           7.2250     5.3620    10.1610 OW            1 RES     
   13313 HW1          7.8180     5.7440    10.8690 HW1           1 RES     
   13314 HW2          6.3490     5.0980    10.5660 HW2           1 RES     
   13315 OW          18.0610    44.2370     6.9520 OW            1 RES     
   13316 HW1         18.9830    43.9170     6.7370 HW1           1 RES     
   13317 HW2         18.0560    45.2360     6.9980 HW2           1 RES     
   13318 OW          21.8680    36.3460     9.7960 OW            1 RES     
   13319 HW1         21.7520    36.2770    10.7870 HW1           1 RES     
   13320 HW2         22.5220    37.0730     9.5870 HW2           1 RES     
   13321 OW          43.5880    48.1090    10.1360 OW            1 RES     
   13322 HW1         43.8870    48.7060    10.8790 HW1           1 RES     
   13323 HW2         42.6080    47.9260    10.2280 HW2           1 RES     
   13324 OW          50.9540     9.9950    11.6430 OW            1 RES     
   13325 HW1         50.6970    10.1330    10.6860 HW1           1 RES     
   13326 HW2         51.9280    10.1880    11.7590 HW2           1 RES     
   13327 OW          37.0900    24.2970    10.0840 OW            1 RES     
   13328 HW1         37.3590    23.6510     9.3700 HW1           1 RES     
   13329 HW2         36.2320    23.9970    10.5010 HW2           1 RES     
   13330 OW           3.0080     8.2170     7.5430 OW            1 RES     
   13331 HW1          3.0050     8.9560     6.8700 HW1           1 RES     
   13332 HW2          2.5020     7.4340     7.1820 HW2           1 RES     
   13333 OW          49.5650    51.0410     7.4190 OW            1 RES     
   13334 HW1         48.7270    51.0600     7.9640 HW1           1 RES     
   13335 HW2         49.4370    50.4380     6.6320 HW2           1 RES     
   13336 OW          11.8130    49.4370     7.7410 OW            1 RES     
   13337 HW1         11.0080    49.4530     8.3320 HW1           1 RES     
   13338 HW2         11.9030    48.5330     7.3230 HW2           1 RES     
   13339 OW          49.6870    16.6830     4.3040 OW            1 RES     
   13340 HW1         49.8780    15.8910     4.8840 HW1           1 RES     
   13341 HW2         48.8970    16.4880     3.7220 HW2           1 RES     
   13342 OW          38.5600    14.9740     8.7290 OW            1 RES     
   13343 HW1         38.5440    15.8570     9.1990 HW1           1 RES     
   13344 HW2         37.6290    14.7210     8.4640 HW2           1 RES     
   13345 OW          43.4940    25.8440     7.7570 OW            1 RES     
   13346 HW1         43.3100    25.1900     7.0240 HW1           1 RES     
   13347 HW2         43.7880    25.3520     8.5770 HW2           1 RES     
   13348 OW          32.3190    51.6960    13.0640 OW            1 RES     
   13349 HW1         31.4070    51.8060    13.4590 HW1           1 RES     
   13350 HW2         32.8660    52.5120    13.2520 HW2           1 RES     
   13351 OW           2.5030    36.6030     9.9350 OW            1 RES     
   13352 HW1          3.1010    36.1990    10.6270 HW1           1 RES     
   13353 HW2          2.5570    36.0670     9.0930 HW2           1 RES     
   13354 OW          52.7970    23.3020     3.4720 OW            1 RES     
   13355 HW1         52.9900    23.4490     2.5020 HW1           1 RES     
   13356 HW2         52.7840    24.1820     3.9470 HW2           1 RES     
   13357 OW          51.9060    21.2200     8.3940 OW            1 RES     
   13358 HW1         52.6820    20.6060     8.2500 HW1           1 RES     
   13359 HW2         51.1130    20.6900     8.6950 HW2           1 RES     
   13360 OW          21.8030    39.5890    11.5370 OW            1 RES     
   13361 HW1         22.7970    39.6810    11.4890 HW1           1 RES     
   13362 HW2         21.3810    40.4940    11.4830 HW2           1 RES     
   13363 OW          49.5390    25.9240     8.8370 OW            1 RES     
   13364 HW1         50.4110    25.7910     8.3670 HW1           1 RES     
   13365 HW2         49.7030    26.0440     9.8160 HW2           1 RES     
   13366 OW          50.2610    21.2800     6.5540 OW            1 RES     
   13367 HW1         50.7960    20.4360     6.5330 HW1           1 RES     
   13368 HW2         49.2890    21.0570     6.6290 HW2           1 RES     
   13369 OW          29.6040    38.2890    11.0620 OW            1 RES     
   13370 HW1         30.5950    38.3990    11.1310 HW1           1 RES     
   13371 HW2         29.1740    39.1870    10.9620 HW2           1 RES     
   13372 OW          16.6760    23.8350     9.0220 OW            1 RES     
   13373 HW1         16.5720    24.4890     9.7710 HW1           1 RES     
   13374 HW2         15.9150    23.1870     9.0360 HW2           1 RES     
   13375 OW          33.6970    46.7630    10.7990 OW            1 RES     
   13376 HW1         32.9020    46.2930    11.1820 HW1           1 RES     
   13377 HW2         34.2520    46.1120    10.2810 HW2           1 RES     
   13378 OW          13.8590     7.6250    12.1450 OW            1 RES     
   13379 HW1         14.1160     6.6660    12.2580 HW1           1 RES     
   13380 HW2         14.6800     8.1960    12.1670 HW2           1 RES     
   13381 OW          49.3620    13.3760     4.0970 OW            1 RES     
   13382 HW1         50.3010    13.6890     4.2340 HW1           1 RES     
   13383 HW2         48.7410    14.1600     4.1270 HW2           1 RES     
   13384 OW          20.6130    10.4650     9.2550 OW            1 RES     
   13385 HW1         20.9410    11.4010     9.3800 HW1           1 RES     
   13386 HW2         19.6130    10.4610     9.2400 HW2           1 RES     
   13387 OW          12.4360    41.9050    12.1530 OW            1 RES     
   13388 HW1         13.0190    41.2710    12.6600 HW1           1 RES     
   13389 HW2         11.9560    41.4110    11.4280 HW2           1 RES     
   13390 OW          45.1190    30.4720     6.6970 OW            1 RES     
   13391 HW1         45.8260    30.4340     5.9910 HW1           1 RES     
   13392 HW2         44.6450    31.3500     6.6480 HW2           1 RES     
   13393 OW           2.5940    37.5720     5.8560 OW            1 RES     
   13394 HW1          3.5410    37.6750     6.1580 HW1           1 RES     
   13395 HW2          2.5010    36.7280     5.3280 HW2           1 RES     
   13396 OW          25.8560     3.0510     9.9910 OW            1 RES     
   13397 HW1         25.6190     4.0210     9.9350 HW1           1 RES     
   13398 HW2         25.0240     2.5000     9.9370 HW2           1 RES     
   13399 OW          47.0540     9.0570     9.1540 OW            1 RES     
   13400 HW1         46.2170     9.5990     9.2220 HW1           1 RES     
   13401 HW2         46.8280     8.0850     9.2100 HW2           1 RES     
   13402 OW          43.9960     9.6340     7.3430 OW            1 RES     
   13403 HW1         44.7850    10.1380     6.9930 HW1           1 RES     
   13404 HW2         43.2910    10.2800     7.6380 HW2           1 RES     
   13405 OW          53.8360    25.5820     2.5000 OW            1 RES     
   13406 HW1         54.3990    26.4070     2.5000 HW1           1 RES     
   13407 HW2         52.8690    25.8370     2.5000 HW2           1 RES     
   13408 OW          12.1970    20.6920     7.7760 OW            1 RES     
   13409 HW1         12.1850    21.2660     6.9580 HW1           1 RES     
   13410 HW2         11.2580    20.4960     8.0590 HW2           1 RES     
   13411 OW          18.3270     3.3730     5.5220 OW            1 RES     
   13412 HW1         17.6980     4.1420     5.6380 HW1           1 RES     
   13413 HW2         17.8140     2.5620     5.2410 HW2           1 RES     
   13414 OW          28.3730    48.9940     7.9180 OW            1 RES     
   13415 HW1         28.7690    48.2230     7.4200 HW1           1 RES     
   13416 HW2         27.3780    48.9840     7.8120 HW2           1 RES     
   13417 OW           6.4440    46.4930    10.9860 OW            1 RES     
   13418 HW1          6.6700    47.4650    11.0530 HW1           1 RES     
   13419 HW2          5.4520    46.3780    11.0310 HW2           1 RES     
   13420 OW          48.9490    15.3770     7.5980 OW            1 RES     
   13421 HW1         48.4800    16.1070     8.0930 HW1           1 RES     
   13422 HW2         49.9160    15.6100     7.4970 HW2           1 RES     
   13423 OW          19.8040    51.2420    12.0730 OW            1 RES     
   13424 HW1         20.7340    50.9560    11.8450 HW1           1 RES     
   13425 HW2         19.6300    51.0690    13.0420 HW2           1 RES     
   13426 OW          40.9490    12.5640     2.9070 OW            1 RES     
   13427 HW1         41.4200    11.8610     3.4380 HW1           1 RES     
   13428 HW2         41.5600    13.3440     2.7700 HW2           1 RES     
   13429 OW          42.3730    28.6480     9.2120 OW            1 RES     
   13430 HW1         42.4960    28.1460    10.0680 HW1           1 RES     
   13431 HW2         42.6820    28.0830     8.4470 HW2           1 RES     
   13432 OW          44.5280    19.3890     7.0020 OW            1 RES     
   13433 HW1         43.9310    20.1890     6.9560 HW1           1 RES     
   13434 HW2         45.4710    19.6640     6.8130 HW2           1 RES     
   13435 OW          48.4090    22.5070     2.8080 OW            1 RES     
   13436 HW1         49.0530    21.8070     2.5000 HW1           1 RES     
   13437 HW2         48.8420    23.0720     3.5110 HW2           1 RES     
   13438 OW          18.2930    49.9400     5.1930 OW            1 RES     
   13439 HW1         18.5150    49.2190     5.8490 HW1           1 RES     
   13440 HW2         17.9610    50.7470     5.6840 HW2           1 RES     
   13441 OW          46.2290    46.4120     8.0650 OW            1 RES     
   13442 HW1         46.6130    46.9700     8.8000 HW1           1 RES     
   13443 HW2         46.9120    46.2930     7.3440 HW2           1 RES     
   13444 OW          37.2980    36.7640    13.7390 OW            1 RES     
   13445 HW1         37.4920    35.8870    13.3000 HW1           1 RES     
   13446 HW2         37.8780    37.4740    13.3370 HW2           1 RES     
   13447 OW          48.7290    23.3590    10.9720 OW            1 RES     
   13448 HW1         49.3440    23.6960    10.2600 HW1           1 RES     
   13449 HW2         49.0290    22.4530    11.2710 HW2           1 RES     
   13450 OW          46.4600    24.6270     7.7620 OW            1 RES     
   13451 HW1         47.4360    24.8240     7.6810 HW1           1 RES     
   13452 HW2         45.9820    24.9670     6.9520 HW2           1 RES     
   13453 OW          27.6790     4.0410    10.7250 OW            1 RES     
   13454 HW1         27.5630     3.3530    11.4400 HW1           1 RES     
   13455 HW2         28.6260     4.3630    10.7210 HW2           1 RES     
   13456 OW          17.5310    24.0320     5.1410 OW            1 RES     
   13457 HW1         16.8980    23.7910     4.4060 HW1           1 RES     
   13458 HW2         18.4250    24.2550     4.7520 HW2           1 RES     
   13459 OW          38.5150     6.4450     5.9920 OW            1 RES     
   13460 HW1         37.5810     6.5340     5.6460 HW1           1 RES     
   13461 HW2         39.0920     6.0250     5.2920 HW2           1 RES     
   13462 OW          47.7340    49.2360    10.5370 OW            1 RES     
   13463 HW1         47.7460    49.3490     9.5440 HW1           1 RES     
   13464 HW2         46.9140    48.7300    10.8050 HW2           1 RES     
   13465 OW          35.5260     6.3400    10.6890 OW            1 RES     
   13466 HW1         35.2000     7.1880    11.1070 HW1           1 RES     
   13467 HW2         36.3370     6.5310    10.1340 HW2           1 RES     
   13468 OW          44.7100    39.4980     2.5330 OW            1 RES     
   13469 HW1         43.7600    39.1900     2.5000 HW1           1 RES     
   13470 HW2         44.7390    40.4970     2.5010 HW2           1 RES     
   13471 OW          23.4840    41.7070     6.2080 OW            1 RES     
   13472 HW1         22.9100    40.9260     5.9630 HW1           1 RES     
   13473 HW2         22.9180    42.5280     6.2760 HW2           1 RES     
   13474 OW          46.2480     7.3400    12.4220 OW            1 RES     
   13475 HW1         45.3360     7.7470    12.3870 HW1           1 RES     
   13476 HW2         46.9320     8.0620    12.5250 HW2           1 RES     
   13477 OW          47.9020    29.7970    13.1610 OW            1 RES     
   13478 HW1         48.4340    28.9860    13.3970 HW1           1 RES     
   13479 HW2         48.3230    30.6050    13.5730 HW2           1 RES     
   13480 OW          16.2650     6.0280    12.4940 OW            1 RES     
   13481 HW1         15.8080     5.5550    13.2470 HW1           1 RES     
   13482 HW2         16.8950     6.7120    12.8630 HW2           1 RES     
   13483 OW          38.5180    17.3680     3.0520 OW            1 RES     
   13484 HW1         37.9660    17.9930     2.5010 HW1           1 RES     
   13485 HW2         38.7740    16.5740     2.5010 HW2           1 RES     
   13486 OW          30.4510    24.2220    12.3550 OW            1 RES     
   13487 HW1         30.9020    23.3570    12.5710 HW1           1 RES     
   13488 HW2         31.1320    24.8850    12.0440 HW2           1 RES     
   13489 OW           5.3510     6.7540    12.3500 OW            1 RES     
   13490 HW1          6.3480     6.7210    12.3020 HW1           1 RES     
   13491 HW2          4.9880     5.8220    12.3930 HW2           1 RES     
   13492 OW          11.6450     4.5770    10.7240 OW            1 RES     
   13493 HW1         12.5840     4.3090    10.5120 HW1           1 RES     
   13494 HW2         11.3810     5.3500    10.1470 HW2           1 RES     
   13495 OW          38.4410     7.1490    12.0110 OW            1 RES     
   13496 HW1         37.5290     6.7850    12.2010 HW1           1 RES     
   13497 HW2         39.0500     6.4010    11.7470 HW2           1 RES     
   13498 OW           2.7780    46.1520    10.4760 OW            1 RES     
   13499 HW1          3.2680    46.0290    11.3380 HW1           1 RES     
   13500 HW2          2.5970    45.2580    10.0640 HW2           1 RES     
   13501 OW          18.3110    12.9930    12.5750 OW            1 RES     
   13502 HW1         17.6020    13.0900    13.2720 HW1           1 RES     
   13503 HW2         19.2130    13.0600    13.0030 HW2           1 RES     
   13504 OW          43.8300     2.9320     4.1370 OW            1 RES     
   13505 HW1         44.5950     3.3720     4.6050 HW1           1 RES     
   13506 HW2         43.2940     3.6240     3.6520 HW2           1 RES     
   13507 OW          42.0880    41.3020     4.6330 OW            1 RES     
   13508 HW1         41.7110    42.2050     4.4330 HW1           1 RES     
   13509 HW2         43.0820    41.3670     4.7240 HW2           1 RES     
   13510 OW           9.9500     5.5840     5.0020 OW            1 RES     
   13511 HW1         10.1090     4.6390     5.2880 HW1           1 RES     
   13512 HW2         10.4730     5.7730     4.1710 HW2           1 RES     
   13513 OW           7.6860    22.9950    13.5500 OW            1 RES     
   13514 HW1          7.1390    23.7480    13.1860 HW1           1 RES     
   13515 HW2          8.3680    22.7190    12.8720 HW2           1 RES     
   13516 OW          45.1050     5.1330     8.5410 OW            1 RES     
   13517 HW1         45.6080     5.7850     7.9750 HW1           1 RES     
   13518 HW2         44.2060     4.9630     8.1360 HW2           1 RES     
   13519 OW          19.7260    35.6520    11.4020 OW            1 RES     
   13520 HW1         19.7490    35.3340    12.3490 HW1           1 RES     
   13521 HW2         18.9080    35.2960    10.9500 HW2           1 RES     
   13522 OW          19.6760    36.2880     6.9500 OW            1 RES     
   13523 HW1         19.0090    37.0220     6.8240 HW1           1 RES     
   13524 HW2         20.1690    36.1350     6.0940 HW2           1 RES     
   13525 OW           4.8360    28.4040     6.0700 OW            1 RES     
   13526 HW1          5.1180    27.4450     6.0760 HW1           1 RES     
   13527 HW2          3.8370    28.4580     6.0740 HW2           1 RES     
   13528 OW          12.2670    35.1840     5.3180 OW            1 RES     
   13529 HW1         13.2260    34.9100     5.3880 HW1           1 RES     
   13530 HW2         11.6830    34.3740     5.3860 HW2           1 RES     
   13531 OW          12.3650    39.9970     5.1220 OW            1 RES     
   13532 HW1         11.8220    40.5160     4.4630 HW1           1 RES     
   13533 HW2         13.1540    39.5920     4.6600 HW2           1 RES     
   13534 OW          16.9630    14.2940     3.6800 OW            1 RES     
   13535 HW1         16.4920    14.7240     2.9100 HW1           1 RES     
   13536 HW2         16.5700    14.6250     4.5380 HW2           1 RES     
   13537 OW           3.1830    49.4020     3.7730 OW            1 RES     
   13538 HW1          2.5000    49.8100     3.1690 HW1           1 RES     
   13539 HW2          2.7630    48.6640     4.3020 HW2           1 RES     
   13540 OW          53.6140    22.2390    12.3070 OW            1 RES     
   13541 HW1         54.5790    22.3420    12.0690 HW1           1 RES     
   13542 HW2         53.5150    21.5250    13.0000 HW2           1 RES     
   13543 OW          21.8150    11.5200     6.6500 OW            1 RES     
   13544 HW1         22.7100    11.1580     6.3920 HW1           1 RES     
   13545 HW2         21.7810    12.5000     6.4510 HW2           1 RES     
   13546 OW          53.8150    25.6520    11.2720 OW            1 RES     
   13547 HW1         53.8050    24.9600    11.9930 HW1           1 RES     
   13548 HW2         54.2520    25.2760    10.4540 HW2           1 RES     
   13549 OW          13.2150     6.1650    14.2020 OW            1 RES     
   13550 HW1         12.2260     6.0200    14.1970 HW1           1 RES     
   13551 HW2         13.6830     5.2810    14.2050 HW2           1 RES     
   13552 OW          23.8310    46.9930     2.5030 OW            1 RES     
   13553 HW1         24.7000    46.5660     2.7480 HW1           1 RES     
   13554 HW2         23.8540    47.9620     2.7500 HW2           1 RES     
   13555 OW           5.8680    20.5400     2.5020 OW            1 RES     
   13556 HW1          6.5610    19.9630     2.9320 HW1           1 RES     
   13557 HW2          4.9780    20.0870     2.5520 HW2           1 RES     
   13558 OW          53.3940    36.7410     5.8590 OW            1 RES     
   13559 HW1         54.3650    36.9600     5.7670 HW1           1 RES     
   13560 HW2         53.1030    36.9040     6.8030 HW2           1 RES     
   13561 OW          50.4530    30.2660    13.1400 OW            1 RES     
   13562 HW1         51.1110    29.6130    12.7660 HW1           1 RES     
   13563 HW2         50.9240    31.1150    13.3790 HW2           1 RES     
   13564 OW          31.4160    28.5940     5.2820 OW            1 RES     
   13565 HW1         31.3740    29.5920     5.2660 HW1           1 RES     
   13566 HW2         32.1970    28.2830     4.7400 HW2           1 RES     
   13567 OW          19.9040    32.6080    13.4370 OW            1 RES     
   13568 HW1         20.4750    32.3200    14.2050 HW1           1 RES     
   13569 HW2         20.4860    32.8470    12.6590 HW2           1 RES     
   13570 OW           7.5650    45.4320     9.4180 OW            1 RES     
   13571 HW1          8.3600    44.8280     9.3710 HW1           1 RES     
   13572 HW2          6.7340    44.8830     9.5160 HW2           1 RES     
   13573 OW           2.9290     3.3330     3.1730 OW            1 RES     
   13574 HW1          3.9100     3.3610     3.3610 HW1           1 RES     
   13575 HW2          2.5290     2.5250     3.6060 HW2           1 RES     
   13576 OW          27.9770    47.0860     4.9580 OW            1 RES     
   13577 HW1         27.4820    46.2200     4.9010 HW1           1 RES     
   13578 HW2         27.3400    47.8210     5.1910 HW2           1 RES     
   13579 OW          47.8120    15.2480    14.1710 OW            1 RES     
   13580 HW1         46.8130    15.2730    14.1560 HW1           1 RES     
   13581 HW2         48.1210    14.2970    14.2000 HW2           1 RES     
   13582 OW           8.8820    11.8080     7.0120 OW            1 RES     
   13583 HW1          9.7410    12.2000     7.3390 HW1           1 RES     
   13584 HW2          8.2550    12.5430     6.7570 HW2           1 RES     
   13585 OW           5.7210    44.6190     5.4300 OW            1 RES     
   13586 HW1          5.7120    45.5660     5.1090 HW1           1 RES     
   13587 HW2          5.3920    44.0170     4.7020 HW2           1 RES     
   13588 OW          12.8430    42.8620     4.9820 OW            1 RES     
   13589 HW1         13.3570    42.0840     4.6220 HW1           1 RES     
   13590 HW2         11.9380    42.5560     5.2770 HW2           1 RES     
   13591 OW          35.0090    24.3640    12.5760 OW            1 RES     
   13592 HW1         35.8230    23.9160    12.9420 HW1           1 RES     
   13593 HW2         34.2670    24.3080    13.2460 HW2           1 RES     
   13594 OW          13.7780    24.3130    10.3560 OW            1 RES     
   13595 HW1         12.7810    24.3810    10.3550 HW1           1 RES     
   13596 HW2         14.0480    23.3590    10.2220 HW2           1 RES     
   13597 OW          44.5990     5.5390     5.1960 OW            1 RES     
   13598 HW1         44.1200     5.8730     6.0070 HW1           1 RES     
   13599 HW2         44.7910     6.3050     4.5830 HW2           1 RES     
   13600 OW          38.4990    14.6340    14.1420 OW            1 RES     
   13601 HW1         39.4980    14.6260    14.1890 HW1           1 RES     
   13602 HW2         38.1730    15.5800    14.1400 HW2           1 RES     
   13603 OW          34.9640     9.6680     6.4270 OW            1 RES     
   13604 HW1         34.7710    10.6380     6.2840 HW1           1 RES     
   13605 HW2         35.9460     9.5400     6.5710 HW2           1 RES     
   13606 OW          28.0680    11.8080     5.2210 OW            1 RES     
   13607 HW1         28.2070    12.7500     5.5230 HW1           1 RES     
   13608 HW2         28.2990    11.1800     5.9650 HW2           1 RES     
   13609 OW          20.5240    31.0860     8.0380 OW            1 RES     
   13610 HW1         21.4620    30.8560     8.2960 HW1           1 RES     
   13611 HW2         20.0000    30.2460     7.9000 HW2           1 RES     
   13612 OW          47.2300    39.7870     3.6780 OW            1 RES     
   13613 HW1         47.5300    40.6210     4.1400 HW1           1 RES     
   13614 HW2         46.8690    40.0180     2.7740 HW2           1 RES     
   13615 OW          19.4630    26.6000     6.0160 OW            1 RES     
   13616 HW1         20.4160    26.3320     5.8780 HW1           1 RES     
   13617 HW2         19.3430    27.5550     5.7460 HW2           1 RES     
   13618 OW          35.3340    43.4460    10.3520 OW            1 RES     
   13619 HW1         35.6330    44.4000    10.3620 HW1           1 RES     
   13620 HW2         35.6840    42.9770    11.1630 HW2           1 RES     
   13621 OW          20.5580    29.8250    10.3040 OW            1 RES     
   13622 HW1         20.2240    30.7660    10.3340 HW1           1 RES     
   13623 HW2         19.7810    29.1950    10.3150 HW2           1 RES     
   13624 OW          26.0670    44.4460     3.1320 OW            1 RES     
   13625 HW1         25.2920    44.4470     2.5010 HW1           1 RES     
   13626 HW2         26.4930    45.3510     3.1380 HW2           1 RES     
   13627 OW          50.4370    18.3180     6.0560 OW            1 RES     
   13628 HW1         51.1000    17.9710     5.3930 HW1           1 RES     
   13629 HW2         49.8000    17.5890     6.3060 HW2           1 RES     
   13630 OW          24.3580    39.6030     8.4460 OW            1 RES     
   13631 HW1         23.7370    39.8820     7.7140 HW1           1 RES     
   13632 HW2         24.1020    38.6920     8.7720 HW2           1 RES     
   13633 OW           6.9290    25.7570     9.0020 OW            1 RES     
   13634 HW1          7.7030    25.7710     8.3700 HW1           1 RES     
   13635 HW2          7.1370    26.3260     9.7980 HW2           1 RES     
   13636 OW           5.9490    23.8030     9.2660 OW            1 RES     
   13637 HW1          6.6600    23.3390     9.7950 HW1           1 RES     
   13638 HW2          5.6250    23.1980     8.5390 HW2           1 RES     
   13639 OW          52.4790    48.6200    12.7920 OW            1 RES     
   13640 HW1         52.3980    49.4920    12.3090 HW1           1 RES     
   13641 HW2         52.9310    48.7670    13.6720 HW2           1 RES     
   13642 OW          34.8410    51.5070    11.8620 OW            1 RES     
   13643 HW1         33.9110    51.2300    11.6190 HW1           1 RES     
   13644 HW2         35.3200    51.8200    11.0420 HW2           1 RES     
   13645 OW          22.0660     6.4790     2.5080 OW            1 RES     
   13646 HW1         21.0740     6.3730     2.5570 HW1           1 RES     
   13647 HW2         22.3000     7.4510     2.5410 HW2           1 RES     
   13648 OW          39.6720    50.1740    10.6490 OW            1 RES     
   13649 HW1         38.9780    49.5850    10.2360 HW1           1 RES     
   13650 HW2         40.2270    49.6400    11.2870 HW2           1 RES     
   13651 OW          20.6690    41.9250     6.5700 OW            1 RES     
   13652 HW1         19.6960    41.8220     6.7750 HW1           1 RES     
   13653 HW2         20.7790    42.4210     5.7090 HW2           1 RES     
   13654 OW          12.0870    30.0670     6.7750 OW            1 RES     
   13655 HW1         11.4820    29.3380     6.4570 HW1           1 RES     
   13656 HW2         13.0220    29.8810     6.4720 HW2           1 RES     
   13657 OW          29.4320    39.9870     8.9290 OW            1 RES     
   13658 HW1         28.6360    39.9220     8.3300 HW1           1 RES     
   13659 HW2         29.9670    39.1440     8.8680 HW2           1 RES     
   13660 OW          30.0250    37.4590     3.8840 OW            1 RES     
   13661 HW1         29.5820    37.0580     3.0840 HW1           1 RES     
   13662 HW2         29.3560    37.5610     4.6210 HW2           1 RES     
   13663 OW          20.5680    40.1710     5.2460 OW            1 RES     
   13664 HW1         19.7890    39.6910     4.8460 HW1           1 RES     
   13665 HW2         21.1690    39.5130     5.7000 HW2           1 RES     
   13666 OW          53.1570    22.4840     6.2070 OW            1 RES     
   13667 HW1         53.4140    22.3760     7.1670 HW1           1 RES     
   13668 HW2         52.2290    22.1360     6.0690 HW2           1 RES     
   13669 OW          27.6510    20.4170    11.5040 OW            1 RES     
   13670 HW1         27.2120    20.1450    12.3600 HW1           1 RES     
   13671 HW2         28.3210    21.1370    11.6860 HW2           1 RES     
   13672 OW           4.5930    38.3520     8.2720 OW            1 RES     
   13673 HW1          5.0850    38.4100     9.1400 HW1           1 RES     
   13674 HW2          3.9020    37.6310     8.3280 HW2           1 RES     
   13675 OW          11.6690    26.1880    11.0180 OW            1 RES     
   13676 HW1         10.6760    26.1920    11.1360 HW1           1 RES     
   13677 HW2         12.0930    26.7400    11.7360 HW2           1 RES     
   13678 OW          31.4640    32.4960     5.1080 OW            1 RES     
   13679 HW1         32.3780    32.3250     4.7410 HW1           1 RES     
   13680 HW2         30.8770    31.7080     4.9230 HW2           1 RES     
   13681 OW          32.9140     8.9710    13.3150 OW            1 RES     
   13682 HW1         32.5970     8.3150    12.6320 HW1           1 RES     
   13683 HW2         32.4480     8.8000    14.1840 HW2           1 RES     
   13684 OW           9.1890    50.6790     8.0350 OW            1 RES     
   13685 HW1          8.2650    51.0620     8.0400 HW1           1 RES     
   13686 HW2          9.8570    51.4200     7.9590 HW2           1 RES     
   13687 OW          41.2490    45.7730    11.7210 OW            1 RES     
   13688 HW1         41.9570    45.2450    12.1890 HW1           1 RES     
   13689 HW2         40.4550    45.1890    11.5500 HW2           1 RES     
   13690 OW          31.5830    25.7950     3.0830 OW            1 RES     
   13691 HW1         31.9590    26.5140     2.5000 HW1           1 RES     
   13692 HW2         31.0020    26.2040     3.7870 HW2           1 RES     
   13693 OW           4.3140     3.1750     8.1760 OW            1 RES     
   13694 HW1          5.0360     2.5000     8.0290 HW1           1 RES     
   13695 HW2          3.4540     2.8330     7.7970 HW2           1 RES     
   13696 OW          44.7090    38.7950     9.8440 OW            1 RES     
   13697 HW1         45.6550    39.0490    10.0430 HW1           1 RES     
   13698 HW2         44.1590    39.6220     9.7260 HW2           1 RES     
   13699 OW          18.1840    45.4710    11.8070 OW            1 RES     
   13700 HW1         19.0840    45.0520    11.6970 HW1           1 RES     
   13701 HW2         17.8230    45.2540    12.7140 HW2           1 RES     
   13702 OW          47.9820    31.8300     4.2690 OW            1 RES     
   13703 HW1         47.4490    32.6730     4.2070 HW1           1 RES     
   13704 HW2         47.8040    31.3860     5.1470 HW2           1 RES     
   13705 OW          21.9430    30.5600    11.8540 OW            1 RES     
   13706 HW1         22.5540    30.1970    11.1510 HW1           1 RES     
   13707 HW2         22.2510    31.4720    12.1250 HW2           1 RES     
   13708 OW          15.0220    46.6180     5.0040 OW            1 RES     
   13709 HW1         15.9860    46.8790     5.0540 HW1           1 RES     
   13710 HW2         14.8950    45.7280     5.4410 HW2           1 RES     
   13711 OW          11.7020    30.7870    13.7880 OW            1 RES     
   13712 HW1         11.1890    29.9860    14.0930 HW1           1 RES     
   13713 HW2         12.0900    30.6110    12.8830 HW2           1 RES     
   13714 OW           6.0730    15.3530     4.4710 OW            1 RES     
   13715 HW1          6.6090    15.0120     5.2420 HW1           1 RES     
   13716 HW2          5.1180    15.0740     4.5790 HW2           1 RES     
   13717 OW          15.3200    37.2370     3.4670 OW            1 RES     
   13718 HW1         16.2220    36.8220     3.3540 HW1           1 RES     
   13719 HW2         14.6310    36.6660     3.0190 HW2           1 RES     
   13720 OW           7.0870    36.6660    13.9420 OW            1 RES     
   13721 HW1          6.0990    36.5130    13.9590 HW1           1 RES     
   13722 HW2          7.2790    37.6320    14.1140 HW2           1 RES     
   13723 OW          23.5380    12.6980     5.0570 OW            1 RES     
   13724 HW1         24.0510    13.4750     5.4200 HW1           1 RES     
   13725 HW2         24.1630    12.0750     4.5870 HW2           1 RES     
   13726 OW          47.9870    27.9080     3.7430 OW            1 RES     
   13727 HW1         48.8440    27.4130     3.6040 HW1           1 RES     
   13728 HW2         48.0990    28.5690     4.4850 HW2           1 RES     
   13729 OW          22.0430    17.1160    12.7320 OW            1 RES     
   13730 HW1         21.1990    16.8970    12.2450 HW1           1 RES     
   13731 HW2         21.8210    17.5520    13.6050 HW2           1 RES     
   13732 OW          46.1900    34.2660    11.2100 OW            1 RES     
   13733 HW1         45.2090    34.4430    11.2780 HW1           1 RES     
   13734 HW2         46.3500    33.2800    11.1690 HW2           1 RES     
   13735 OW          36.6590    40.6370    11.5860 OW            1 RES     
   13736 HW1         36.1520    41.1210    12.2990 HW1           1 RES     
   13737 HW2         37.0970    41.3000    10.9790 HW2           1 RES     
   13738 OW          42.9980    19.6430    11.7950 OW            1 RES     
   13739 HW1         43.0520    20.6410    11.8020 HW1           1 RES     
   13740 HW2         42.1070    19.3590    11.4390 HW2           1 RES     
   13741 OW          25.6290     8.9290     7.2690 OW            1 RES     
   13742 HW1         24.8370     9.4840     7.5200 HW1           1 RES     
   13743 HW2         26.3670     9.5240     6.9510 HW2           1 RES     
   13744 OW           9.8110    50.9010    13.4960 OW            1 RES     
   13745 HW1          9.6970    50.0820    14.0570 HW1           1 RES     
   13746 HW2         10.6630    51.3610    13.7460 HW2           1 RES     
   13747 OW          28.9590    10.6040    14.0310 OW            1 RES     
   13748 HW1         29.2220    11.5340    13.7760 HW1           1 RES     
   13749 HW2         29.7810    10.0610    14.2050 HW2           1 RES     
   13750 OW          40.3690    49.2220    13.6300 OW            1 RES     
   13751 HW1         39.4580    49.0380    13.2630 HW1           1 RES     
   13752 HW2         40.8920    48.3690    13.6690 HW2           1 RES     
   13753 OW          51.7750    39.5640    11.8410 OW            1 RES     
   13754 HW1         50.8250    39.3980    12.1050 HW1           1 RES     
   13755 HW2         51.8680    40.4980    11.4970 HW2           1 RES     
   13756 OW          32.7400    52.7200    10.5020 OW            1 RES     
   13757 HW1         32.9520    53.4130    11.1910 HW1           1 RES     
   13758 HW2         31.8580    52.9290    10.0790 HW2           1 RES     
   13759 OW           7.2980    14.1240     2.5120 OW            1 RES     
   13760 HW1          7.7270    14.7710     3.1420 HW1           1 RES     
   13761 HW2          6.3090    14.2740     2.5020 HW2           1 RES     
   13762 OW          37.8560    16.5330     7.2210 OW            1 RES     
   13763 HW1         37.3350    17.3120     6.8750 HW1           1 RES     
   13764 HW2         38.2390    16.0190     6.4530 HW2           1 RES     
   13765 OW          15.7340    34.2110     7.6590 OW            1 RES     
   13766 HW1         15.9490    33.2450     7.5160 HW1           1 RES     
   13767 HW2         16.5790    34.7460     7.6500 HW2           1 RES     
   13768 OW          42.2200    50.0810    10.4500 OW            1 RES     
   13769 HW1         42.7480    50.8590    10.7870 HW1           1 RES     
   13770 HW2         42.3710    49.9770     9.4660 HW2           1 RES     
   13771 OW          38.9140    42.7680    11.6190 OW            1 RES     
   13772 HW1         38.8050    43.6940    11.9780 HW1           1 RES     
   13773 HW2         38.6450    42.1050    12.3180 HW2           1 RES     
   13774 OW          34.7240    16.1850    11.9970 OW            1 RES     
   13775 HW1         34.2620    15.5140    11.4180 HW1           1 RES     
   13776 HW2         34.3700    16.1200    12.9300 HW2           1 RES     
   13777 OW          21.0910     4.4650     6.7310 OW            1 RES     
   13778 HW1         20.3100     3.9350     6.4000 HW1           1 RES     
   13779 HW2         21.0460     5.3920     6.3580 HW2           1 RES     
   13780 OW          49.3100    30.5550     8.4110 OW            1 RES     
   13781 HW1         48.6100    31.2580     8.5310 HW1           1 RES     
   13782 HW2         48.9890    29.6930     8.8040 HW2           1 RES     
   13783 OW          50.0770    12.6180    12.3380 OW            1 RES     
   13784 HW1         49.3720    13.1730    12.7780 HW1           1 RES     
   13785 HW2         50.7450    12.3230    13.0210 HW2           1 RES     
   13786 OW          26.8990    21.3720     8.8330 OW            1 RES     
   13787 HW1         26.0990    20.9460     9.2560 HW1           1 RES     
   13788 HW2         27.6740    21.3250     9.4630 HW2           1 RES     
   13789 OW          44.7690    26.3190     4.8670 OW            1 RES     
   13790 HW1         44.8760    25.3500     5.0880 HW1           1 RES     
   13791 HW2         43.8220    26.5960     5.0280 HW2           1 RES     
   13792 OW           6.5870    12.8140     5.3480 OW            1 RES     
   13793 HW1          6.0180    12.1050     5.7620 HW1           1 RES     
   13794 HW2          7.2740    12.3890     4.7580 HW2           1 RES     
   13795 OW          50.7890    24.0290     2.9390 OW            1 RES     
   13796 HW1         50.0830    24.5830     2.5010 HW1           1 RES     
   13797 HW2         50.8150    23.1240     2.5150 HW2           1 RES     
   13798 OW          52.5330    46.2110    12.1820 OW            1 RES     
   13799 HW1         53.0820    46.1910    13.0170 HW1           1 RES     
   13800 HW2         52.1420    45.3050    12.0170 HW2           1 RES     
   13801 OW          48.0010    41.7290    14.2000 OW            1 RES     
   13802 HW1         47.8310    42.1250    13.2980 HW1           1 RES     
   13803 HW2         48.1180    40.7400    14.1130 HW2           1 RES     
   13804 OW          26.6850    53.4630     4.9890 OW            1 RES     
   13805 HW1         26.5720    53.5640     4.0010 HW1           1 RES     
   13806 HW2         25.8170    53.6570     5.4460 HW2           1 RES     
   13807 OW          16.5230    12.8900     5.8900 OW            1 RES     
   13808 HW1         15.6620    12.3890     5.9670 HW1           1 RES     
   13809 HW2         17.2720    12.2450     5.7370 HW2           1 RES     
   13810 OW          54.2960     4.9670    12.9480 OW            1 RES     
   13811 HW1         53.3070     4.8240    12.9740 HW1           1 RES     
   13812 HW2         54.7600     4.0820    12.9060 HW2           1 RES     
   13813 OW          38.5390    11.5160    14.2030 OW            1 RES     
   13814 HW1         39.4500    11.1770    13.9730 HW1           1 RES     
   13815 HW2         38.4360    12.4520    13.8680 HW2           1 RES     
   13816 OW          51.6670    32.1910     7.7720 OW            1 RES     
   13817 HW1         50.7070    32.3140     7.5230 HW1           1 RES     
   13818 HW2         52.2490    32.6170     7.0800 HW2           1 RES     
   13819 OW           8.1920    48.5480     6.7620 OW            1 RES     
   13820 HW1          8.6340    49.2800     6.2440 HW1           1 RES     
   13821 HW2          8.8490    48.1490     7.4020 HW2           1 RES     
   13822 OW          51.8950    52.5770     3.4520 OW            1 RES     
   13823 HW1         51.0290    52.9340     3.1040 HW1           1 RES     
   13824 HW2         52.4360    53.3270     3.8340 HW2           1 RES     
   13825 OW          45.7160    35.6480     4.3130 OW            1 RES     
   13826 HW1         46.5990    36.1120     4.2480 HW1           1 RES     
   13827 HW2         44.9960    36.3230     4.4770 HW2           1 RES     
   13828 OW          48.4410    48.3710     4.3770 OW            1 RES     
   13829 HW1         49.2270    48.9850     4.4390 HW1           1 RES     
   13830 HW2         48.0020    48.3000     5.2730 HW2           1 RES     
   13831 OW          47.2440    24.5910     9.9150 OW            1 RES     
   13832 HW1         46.9830    23.6580     9.6670 HW1           1 RES     
   13833 HW2         46.4370    25.0880    10.2360 HW2           1 RES     
   13834 OW          54.4770    10.5490     6.4980 OW            1 RES     
   13835 HW1         54.7820    10.1970     5.6140 HW1           1 RES     
   13836 HW2         54.6290    11.5370     6.5340 HW2           1 RES     
   13837 OW          41.5700    29.1520     4.9100 OW            1 RES     
   13838 HW1         41.3270    30.0400     5.2990 HW1           1 RES     
   13839 HW2         40.8460    28.4910     5.1070 HW2           1 RES     
   13840 OW           9.4690    43.2610    13.3190 OW            1 RES     
   13841 HW1          9.1930    42.4010    13.7470 HW1           1 RES     
   13842 HW2          9.6110    43.9550    14.0240 HW2           1 RES     
   13843 OW          42.2540    36.4350    13.9420 OW            1 RES     
   13844 HW1         42.7440    37.3040    13.9980 HW1           1 RES     
   13845 HW2         41.2920    36.5790    14.1780 HW2           1 RES     
   13846 OW          44.6770    45.6610     9.4920 OW            1 RES     
   13847 HW1         44.4860    45.0350     8.7360 HW1           1 RES     
   13848 HW2         44.4630    45.2110    10.3590 HW2           1 RES     
   13849 OW          49.6310     8.1030    14.1990 OW            1 RES     
   13850 HW1         50.1790     7.3070    13.9440 HW1           1 RES     
   13851 HW2         48.7090     8.0090    13.8210 HW2           1 RES     
   13852 OW          12.0930    11.3000    11.3850 OW            1 RES     
   13853 HW1         12.6070    10.8060    10.6850 HW1           1 RES     
   13854 HW2         12.1450    12.2830    11.2050 HW2           1 RES     
   13855 OW          11.9910    48.7840    11.1440 OW            1 RES     
   13856 HW1         11.5090    49.6150    10.8710 HW1           1 RES     
   13857 HW2         11.3490    48.0160    11.1620 HW2           1 RES     
   13858 OW          32.8140    49.4430     9.3310 OW            1 RES     
   13859 HW1         33.4320    50.1440     9.6850 HW1           1 RES     
   13860 HW2         33.1490    48.5380     9.5940 HW2           1 RES     
   13861 OW          51.0790    14.5700    13.3560 OW            1 RES     
   13862 HW1         51.9770    14.1740    13.1660 HW1           1 RES     
   13863 HW2         50.7140    14.1790    14.2010 HW2           1 RES     
   13864 OW          10.8660    12.8110     9.4940 OW            1 RES     
   13865 HW1         11.4220    13.6320     9.6240 HW1           1 RES     
   13866 HW2          9.9110    13.0730     9.3510 HW2           1 RES     
   13867 OW          30.9360    16.4810     3.4330 OW            1 RES     
   13868 HW1         31.6210    17.1880     3.2640 HW1           1 RES     
   13869 HW2         31.3890    15.6400     3.7270 HW2           1 RES     
   13870 OW          22.5460    27.1490    11.2370 OW            1 RES     
   13871 HW1         23.0500    26.7160    11.9840 HW1           1 RES     
   13872 HW2         21.7740    26.5690    10.9760 HW2           1 RES     
   13873 OW          15.6620    39.9790     6.2090 OW            1 RES     
   13874 HW1         15.7550    39.3070     5.4750 HW1           1 RES     
   13875 HW2         14.7790    39.8580     6.6620 HW2           1 RES     
   13876 OW          48.6700    39.6710    11.7570 OW            1 RES     
   13877 HW1         48.2260    39.2170    12.5290 HW1           1 RES     
   13878 HW2         48.4930    40.6550    11.8020 HW2           1 RES     
   13879 OW          19.5140    52.5860     6.7670 OW            1 RES     
   13880 HW1         18.5620    52.3990     7.0060 HW1           1 RES     
   13881 HW2         19.7910    51.9940     6.0110 HW2           1 RES     
   13882 OW          46.9270    14.6170     7.1790 OW            1 RES     
   13883 HW1         46.1170    14.2540     6.7190 HW1           1 RES     
   13884 HW2         47.3070    13.9190     7.7860 HW2           1 RES     
   13885 OW           2.7420    18.1460     5.5270 OW            1 RES     
   13886 HW1          3.7300    18.0510     5.4130 HW1           1 RES     
   13887 HW2          2.5000    19.1160     5.5590 HW2           1 RES     
   13888 OW          36.6000    20.8880     6.9860 OW            1 RES     
   13889 HW1         36.5480    20.9390     5.9890 HW1           1 RES     
   13890 HW2         37.1380    20.0880     7.2510 HW2           1 RES     
   13891 OW           4.2620     9.7460     5.1460 OW            1 RES     
   13892 HW1          4.2910    10.0160     4.1840 HW1           1 RES     
   13893 HW2          4.0040    10.5340     5.7060 HW2           1 RES     
   13894 OW          26.2050    34.2540    13.8810 OW            1 RES     
   13895 HW1         25.8870    35.1440    14.2050 HW1           1 RES     
   13896 HW2         25.4500    33.7710    13.4370 HW2           1 RES     
   13897 OW          32.2230     2.5000    14.0130 OW            1 RES     
   13898 HW1         31.2420     2.5040    14.1990 HW1           1 RES     
   13899 HW2         32.5750     3.4350    14.0570 HW2           1 RES     
   13900 OW          27.4910     9.8650     8.8560 OW            1 RES     
   13901 HW1         26.5770     9.5820     9.1440 HW1           1 RES     
   13902 HW2         27.4400    10.7630     8.4190 HW2           1 RES     
   13903 OW           5.8650     9.1260     8.1480 OW            1 RES     
   13904 HW1          5.1870     8.6270     7.6100 HW1           1 RES     
   13905 HW2          6.7840     8.8810     7.8380 HW2           1 RES     
   13906 OW          52.5260     3.0860     6.0450 OW            1 RES     
   13907 HW1         52.5580     4.0540     5.7970 HW1           1 RES     
   13908 HW2         51.5730     2.7930     6.1220 HW2           1 RES     
   13909 OW           9.6050    22.1910     9.0790 OW            1 RES     
   13910 HW1          8.6510    21.9210     8.9490 HW1           1 RES     
   13911 HW2          9.8160    22.9670     8.4840 HW2           1 RES     
   13912 OW           5.2540    41.6160     3.4500 OW            1 RES     
   13913 HW1          5.2580    41.9260     2.5000 HW1           1 RES     
   13914 HW2          4.5420    42.1010     3.9570 HW2           1 RES     
   13915 OW          28.5790    42.8800     9.0190 OW            1 RES     
   13916 HW1         29.3650    43.3320     8.5980 HW1           1 RES     
   13917 HW2         28.1910    42.2180     8.3790 HW2           1 RES     
   13918 OW          15.0960     4.8910     6.2820 OW            1 RES     
   13919 HW1         14.1090     4.7670     6.1870 HW1           1 RES     
   13920 HW2         15.5580     4.0170     6.1330 HW2           1 RES     
   13921 OW           3.2940    21.6450     3.6940 OW            1 RES     
   13922 HW1          4.2530    21.8990     3.5680 HW1           1 RES     
   13923 HW2          3.2190    20.6500     3.7620 HW2           1 RES     
   13924 OW          43.4170    35.1810     2.5070 OW            1 RES     
   13925 HW1         44.3790    35.4500     2.5190 HW1           1 RES     
   13926 HW2         43.3480    34.1850     2.5510 HW2           1 RES     
   13927 OW          49.2330    52.2780     4.7400 OW            1 RES     
   13928 HW1         49.4420    51.4680     4.1930 HW1           1 RES     
   13929 HW2         48.3800    52.6880     4.4160 HW2           1 RES     
   13930 OW          32.0900     8.5320     7.6240 OW            1 RES     
   13931 HW1         31.2670     9.0970     7.6730 HW1           1 RES     
   13932 HW2         31.9010     7.6320     8.0170 HW2           1 RES     
   13933 OW          36.9310    37.3510    10.5630 OW            1 RES     
   13934 HW1         37.3670    36.4630    10.4210 HW1           1 RES     
   13935 HW2         37.5030    37.9120    11.1610 HW2           1 RES     
   13936 OW           9.1240    34.4390     2.7870 OW            1 RES     
   13937 HW1          8.9480    33.5380     3.1810 HW1           1 RES     
   13938 HW2          8.2590    34.8520     2.5000 HW2           1 RES     
   13939 OW          22.0150    19.8380    11.6460 OW            1 RES     
   13940 HW1         22.8200    20.4260    11.5930 HW1           1 RES     
   13941 HW2         22.2420    18.9290    11.2960 HW2           1 RES     
   13942 OW           6.0130    41.0760     7.9340 OW            1 RES     
   13943 HW1          6.1040    40.1140     8.1920 HW1           1 RES     
   13944 HW2          5.6020    41.5870     8.6890 HW2           1 RES     
   13945 OW          54.6780    39.4200     4.9440 OW            1 RES     
   13946 HW1         54.7860    39.1160     5.8900 HW1           1 RES     
   13947 HW2         54.7860    38.6390     4.3290 HW2           1 RES     
   13948 OW          33.1660    16.5480     8.2030 OW            1 RES     
   13949 HW1         32.2820    16.8740     7.8720 HW1           1 RES     
   13950 HW2         33.0230    15.8550     8.9100 HW2           1 RES     
   13951 OW          18.0200    47.4170     4.4110 OW            1 RES     
   13952 HW1         17.5520    47.7850     3.6090 HW1           1 RES     
   13953 HW2         18.9900    47.6590     4.3730 HW2           1 RES     
   13954 OW          40.5880    26.8130     2.8010 OW            1 RES     
   13955 HW1         41.3640    27.0750     3.3720 HW1           1 RES     
   13956 HW2         40.0610    26.0970     3.2610 HW2           1 RES     
   13957 OW           7.3130    12.3890    11.3070 OW            1 RES     
   13958 HW1          7.3310    11.7200    12.0500 HW1           1 RES     
   13959 HW2          6.4640    12.9160    11.3540 HW2           1 RES     
   13960 OW          27.9230    22.6100     6.3030 OW            1 RES     
   13961 HW1         27.4970    22.7850     7.1910 HW1           1 RES     
   13962 HW2         28.9170    22.6560     6.3950 HW2           1 RES     
   13963 OW          11.1770    20.2410     3.6260 OW            1 RES     
   13964 HW1         11.6020    19.3360     3.6120 HW1           1 RES     
   13965 HW2         11.8870    20.9430     3.6790 HW2           1 RES     
   13966 OW          34.2900    13.2480    10.6980 OW            1 RES     
   13967 HW1         34.0230    12.3000    10.8640 HW1           1 RES     
   13968 HW2         33.5100    13.7550    10.3300 HW2           1 RES     
   13969 OW          27.1930    52.4500    13.8800 OW            1 RES     
   13970 HW1         28.1000    52.8380    14.0430 HW1           1 RES     
   13971 HW2         26.7070    53.0100    13.2090 HW2           1 RES     
   13972 OW          39.0150     5.5880    13.7910 OW            1 RES     
   13973 HW1         38.8410     6.4810    14.2050 HW1           1 RES     
   13974 HW2         39.9960     5.3970    13.8100 HW2           1 RES     
   13975 OW          18.8250    43.4520     4.5620 OW            1 RES     
   13976 HW1         17.8820    43.6120     4.8510 HW1           1 RES     
   13977 HW2         18.9460    42.4840     4.3380 HW2           1 RES     
   13978 OW          48.8820    33.9840     9.4290 OW            1 RES     
   13979 HW1         49.1720    33.3790     8.6890 HW1           1 RES     
   13980 HW2         48.1860    33.5260     9.9820 HW2           1 RES     
   13981 OW          11.4790    36.3360     7.1540 OW            1 RES     
   13982 HW1         10.8690    37.1220     7.2470 HW1           1 RES     
   13983 HW2         12.4190    36.6560     7.0320 HW2           1 RES     
   13984 OW          14.1930    19.5950     7.0690 OW            1 RES     
   13985 HW1         14.0500    18.7550     7.5900 HW1           1 RES     
   13986 HW2         13.5280    19.6420     6.3230 HW2           1 RES     
   13987 OW          27.6310     5.5780     9.1510 OW            1 RES     
   13988 HW1         26.8830     6.2200     9.3200 HW1           1 RES     
   13989 HW2         27.2750     4.7660     8.6870 HW2           1 RES     
   13990 OW          35.0560    21.2970     9.5650 OW            1 RES     
   13991 HW1         34.4560    20.5490     9.8450 HW1           1 RES     
   13992 HW2         35.8280    20.9300     9.0450 HW2           1 RES     
   13993 OW           3.4650     4.2600    12.1110 OW            1 RES     
   13994 HW1          3.5660     3.6430    12.8910 HW1           1 RES     
   13995 HW2          2.5560     4.6770    12.1300 HW2           1 RES     
   13996 OW          13.1280     6.6780     7.9040 OW            1 RES     
   13997 HW1         12.3570     6.3530     8.4500 HW1           1 RES     
   13998 HW2         12.9890     7.6400     7.6690 HW2           1 RES     
   13999 OW          52.2690    46.3120     6.4500 OW            1 RES     
   14000 HW1         52.4120    46.7150     7.3530 HW1           1 RES     
   14001 HW2         52.3720    45.3190     6.5080 HW2           1 RES     
   14002 OW          52.2510    26.2870     6.6210 OW            1 RES     
   14003 HW1         52.1500    27.1590     6.1420 HW1           1 RES     
   14004 HW2         53.1570    26.2410     7.0430 HW2           1 RES     
   14005 OW          47.5090    26.8870     9.4860 OW            1 RES     
   14006 HW1         48.2050    27.5930     9.3600 HW1           1 RES     
   14007 HW2         46.6290    27.3170     9.6890 HW2           1 RES     
   14008 OW           2.9010    41.9450     8.4950 OW            1 RES     
   14009 HW1          2.5000    41.9890     9.4100 HW1           1 RES     
   14010 HW2          3.1970    42.8590     8.2160 HW2           1 RES     
   14011 OW          49.9630    36.0780    14.0840 OW            1 RES     
   14012 HW1         49.1690    36.6720    14.2040 HW1           1 RES     
   14013 HW2         49.6640    35.1250    14.0330 HW2           1 RES     
   14014 OW          52.8670     7.8540    10.9500 OW            1 RES     
   14015 HW1         53.2440     8.2600    10.1180 HW1           1 RES     
   14016 HW2         53.6140     7.5670    11.5500 HW2           1 RES     
   14017 OW          36.6390     3.4700    13.6940 OW            1 RES     
   14018 HW1         37.4950     3.5690    14.2010 HW1           1 RES     
   14019 HW2         36.4510     2.5000    13.5410 HW2           1 RES     
   14020 OW          42.9470     6.7620     7.9960 OW            1 RES     
   14021 HW1         43.8630     7.1140     7.8060 HW1           1 RES     
   14022 HW2         42.3520     7.5140     8.2800 HW2           1 RES     
   14023 OW          14.6800    19.5210     4.4080 OW            1 RES     
   14024 HW1         13.7540    19.5200     4.0320 HW1           1 RES     
   14025 HW2         14.8530    18.6520     4.8720 HW2           1 RES     
   14026 OW           5.3410    19.9430     5.7070 OW            1 RES     
   14027 HW1          6.1400    20.4520     5.3900 HW1           1 RES     
   14028 HW2          5.6190    19.0240     5.9840 HW2           1 RES     
   14029 OW          38.5810    10.8720     6.2060 OW            1 RES     
   14030 HW1         38.2720     9.9240     6.2760 HW1           1 RES     
   14031 HW2         39.1200    10.9870     5.3720 HW2           1 RES     
   14032 OW          52.9640    34.7470    10.1590 OW            1 RES     
   14033 HW1         52.9390    35.7360    10.0130 HW1           1 RES     
   14034 HW2         52.8480    34.2780     9.2830 HW2           1 RES     
   14035 OW           4.4050    31.6050     3.6110 OW            1 RES     
   14036 HW1          3.5320    31.5340     4.0930 HW1           1 RES     
   14037 HW2          4.4020    32.4230     3.0350 HW2           1 RES     
   14038 OW          34.5360    12.0220     3.4960 OW            1 RES     
   14039 HW1         35.3390    12.5040     3.8440 HW1           1 RES     
   14040 HW2         34.6010    11.9410     2.5010 HW2           1 RES     
   14041 OW          52.8020    11.5700    13.2300 OW            1 RES     
   14042 HW1         52.9760    12.3050    12.5760 HW1           1 RES     
   14043 HW2         52.7270    11.9530    14.1510 HW2           1 RES     
   14044 OW          10.3840    38.9330     4.9920 OW            1 RES     
   14045 HW1         11.0260    38.2700     5.3770 HW1           1 RES     
   14046 HW2          9.4570    38.5590     5.0270 HW2           1 RES     
   14047 OW          24.4730     4.6740     7.2850 OW            1 RES     
   14048 HW1         23.6750     5.1230     6.8850 HW1           1 RES     
   14049 HW2         25.0900     5.3640     7.6650 HW2           1 RES     
   14050 OW          24.3230    36.8130     4.4610 OW            1 RES     
   14051 HW1         24.8290    35.9520     4.4910 HW1           1 RES     
   14052 HW2         24.9150    37.5360     4.1020 HW2           1 RES     
   14053 OW          35.8080    49.0000    12.4820 OW            1 RES     
   14054 HW1         34.8850    49.3660    12.3660 HW1           1 RES     
   14055 HW2         36.4580    49.5680    11.9760 HW2           1 RES     
   14056 OW          34.2320    44.3270     3.2110 OW            1 RES     
   14057 HW1         34.1820    43.3400     3.0630 HW1           1 RES     
   14058 HW2         35.1290    44.6630     2.9230 HW2           1 RES     
   14059 OW          25.7800    15.0640     5.7170 OW            1 RES     
   14060 HW1         25.3390    15.2690     6.5910 HW1           1 RES     
   14061 HW2         26.4180    15.7990     5.4850 HW2           1 RES     
   14062 OW          26.3560    42.9720    12.5960 OW            1 RES     
   14063 HW1         25.3580    42.9550    12.6580 HW1           1 RES     
   14064 HW2         26.7480    42.8760    13.5110 HW2           1 RES     
   14065 OW          12.1530    49.1320     5.2210 OW            1 RES     
   14066 HW1         12.8260    48.4080     5.0770 HW1           1 RES     
   14067 HW2         12.6230    50.0080     5.3320 HW2           1 RES     
   14068 OW          11.8900    54.7850    13.7910 OW            1 RES     
   14069 HW1         11.0800    54.5810    13.2420 HW1           1 RES     
   14070 HW2         12.2730    53.9330    14.1490 HW2           1 RES     
   14071 OW          31.4470    31.8630     9.3700 OW            1 RES     
   14072 HW1         30.4980    31.5530     9.3960 HW1           1 RES     
   14073 HW2         31.5370    32.7100     9.8960 HW2           1 RES     
   14074 OW          25.5250    49.0560     5.9800 OW            1 RES     
   14075 HW1         25.6750    48.2890     6.6040 HW1           1 RES     
   14076 HW2         26.3400    49.6350     5.9600 HW2           1 RES     
   14077 OW          14.2880    11.0940    14.0920 OW            1 RES     
   14078 HW1         15.2680    11.2620    14.1980 HW1           1 RES     
   14079 HW2         13.7950    11.9630    14.1230 HW2           1 RES     
   14080 OW          11.3980    19.2250     5.9440 OW            1 RES     
   14081 HW1         10.8070    20.0140     5.7860 HW1           1 RES     
   14082 HW2         10.8430    18.4430     6.2290 HW2           1 RES     
   14083 OW          16.0710     4.1950     2.9030 OW            1 RES     
   14084 HW1         16.3880     3.6120     3.6500 HW1           1 RES     
   14085 HW2         15.6530     5.0220     3.2790 HW2           1 RES     
   14086 OW          20.1660    38.5240    12.5680 OW            1 RES     
   14087 HW1         20.4980    37.6050    12.3580 HW1           1 RES     
   14088 HW2         19.4420    38.7720    11.9240 HW2           1 RES     
   14089 OW          54.6540    28.5510     6.1520 OW            1 RES     
   14090 HW1         53.6770    28.7440     6.0770 HW1           1 RES     
   14091 HW2         54.7860    27.6190     6.4910 HW2           1 RES     
   14092 OW          10.1810     9.9880     5.2330 OW            1 RES     
   14093 HW1         10.8300     9.7520     4.5110 HW1           1 RES     
   14094 HW2          9.2860    10.1800     4.8280 HW2           1 RES     
   14095 OW          45.3710    28.1890     7.7950 OW            1 RES     
   14096 HW1         44.5310    28.4040     7.2980 HW1           1 RES     
   14097 HW2         45.7200    29.0170     8.2350 HW2           1 RES     
   14098 OW          16.6630    32.7180     2.6220 OW            1 RES     
   14099 HW1         16.4430    32.5020     3.5720 HW1           1 RES     
   14100 HW2         17.6560    32.7210     2.5010 HW2           1 RES     
   14101 OW          14.1890    41.5680     2.5260 OW            1 RES     
   14102 HW1         13.2130    41.3540     2.5520 HW1           1 RES     
   14103 HW2         14.3130    42.5600     2.5000 HW2           1 RES     
   14104 OW          44.2560     4.9200    12.9730 OW            1 RES     
   14105 HW1         43.8400     4.5720    13.8130 HW1           1 RES     
   14106 HW2         44.7280     5.7800    13.1650 HW2           1 RES     
   14107 OW          43.1740    17.7180     9.7540 OW            1 RES     
   14108 HW1         44.1480    17.9190     9.6550 HW1           1 RES     
   14109 HW2         43.0090    16.7540     9.5450 HW2           1 RES     
   14110 OW          47.1360    43.9400     9.5240 OW            1 RES     
   14111 HW1         47.0310    44.9330     9.5200 HW1           1 RES     
   14112 HW2         46.3020    43.5140     9.1730 HW2           1 RES     
   14113 OW          30.0290    41.3620     3.4140 OW            1 RES     
   14114 HW1         29.1490    41.5530     3.8480 HW1           1 RES     
   14115 HW2         30.5980    42.1850     3.4340 HW2           1 RES     
   14116 OW          14.2060     4.2530     8.9310 OW            1 RES     
   14117 HW1         14.2580     3.6850     8.1100 HW1           1 RES     
   14118 HW2         14.7030     5.1080     8.7770 HW2           1 RES     
   14119 OW          45.9550    43.6430     6.0350 OW            1 RES     
   14120 HW1         46.2220    44.6020     6.1180 HW1           1 RES     
   14121 HW2         46.6070    43.1640     5.4460 HW2           1 RES     
   14122 OW           3.2500    21.3160    11.4910 OW            1 RES     
   14123 HW1          3.3710    20.6250    12.2030 HW1           1 RES     
   14124 HW2          2.5000    21.9270    11.7420 HW2           1 RES     
   14125 OW          50.3070    47.1580    14.2010 OW            1 RES     
   14126 HW1         49.8810    48.0590    14.1290 HW1           1 RES     
   14127 HW2         51.0890    47.1070    13.5800 HW2           1 RES     
   14128 OW          21.4900    31.7910     5.8520 OW            1 RES     
   14129 HW1         20.7070    31.1700     5.8470 HW1           1 RES     
   14130 HW2         21.3620    32.4850     6.5610 HW2           1 RES     
   14131 OW          51.4670    30.0200     7.4540 OW            1 RES     
   14132 HW1         51.6910    29.6430     6.5560 HW1           1 RES     
   14133 HW2         51.0780    29.3020     8.0310 HW2           1 RES     
   14134 OW          46.3540    35.3860    13.8230 OW            1 RES     
   14135 HW1         47.2590    35.1900    14.1990 HW1           1 RES     
   14136 HW2         45.7790    34.5710    13.8930 HW2           1 RES     
   14137 OW          17.0220    28.8300     5.3660 OW            1 RES     
   14138 HW1         16.3640    29.5810     5.3970 HW1           1 RES     
   14139 HW2         16.5370    27.9660     5.2340 HW2           1 RES     
   14140 OW           4.1890    15.5260    13.5490 OW            1 RES     
   14141 HW1          4.8930    14.8170    13.5480 HW1           1 RES     
   14142 HW2          4.2260    16.0340    12.6880 HW2           1 RES     
   14143 OW          34.4020    13.8670    13.9760 OW            1 RES     
   14144 HW1         35.1440    14.4980    14.2000 HW1           1 RES     
   14145 HW2         33.5340    14.3630    13.9580 HW2           1 RES     
   14146 OW          14.6300    39.0570    10.2930 OW            1 RES     
   14147 HW1         14.4810    38.7130    11.2200 HW1           1 RES     
   14148 HW2         15.4690    39.5990    10.2680 HW2           1 RES     
   14149 OW          22.1440    36.9060     4.7480 OW            1 RES     
   14150 HW1         22.2570    37.6400     4.0780 HW1           1 RES     
   14151 HW2         21.8250    36.0780     4.2850 HW2           1 RES     
   14152 OW          21.9140    27.9670     3.5000 OW            1 RES     
   14153 HW1         21.1580    28.6190     3.4660 HW1           1 RES     
   14154 HW2         21.5510    27.0370     3.5560 HW2           1 RES     
   14155 OW          23.6850    13.8580     3.1930 OW            1 RES     
   14156 HW1         23.1710    13.0950     2.8020 HW1           1 RES     
   14157 HW2         23.4130    14.7090     2.7440 HW2           1 RES     
   14158 OW          49.5780    48.2460     8.9490 OW            1 RES     
   14159 HW1         49.5060    47.5510     8.2350 HW1           1 RES     
   14160 HW2         50.5380    48.4990     9.0730 HW2           1 RES     
   14161 OW          34.4750    33.6870    10.3840 OW            1 RES     
   14162 HW1         33.6980    34.2410    10.6820 HW1           1 RES     
   14163 HW2         34.3040    33.3420     9.4610 HW2           1 RES     
   14164 OW          53.5740    42.2940     7.2310 OW            1 RES     
   14165 HW1         54.3080    42.9410     7.0280 HW1           1 RES     
   14166 HW2         52.8200    42.4320     6.5880 HW2           1 RES     
   14167 OW          50.8400    33.2790    10.7330 OW            1 RES     
   14168 HW1         50.8710    32.7070     9.9140 HW1           1 RES     
   14169 HW2         51.7270    33.2500    11.1940 HW2           1 RES     
   14170 OW          30.5310    50.3890     6.6390 OW            1 RES     
   14171 HW1         30.0430    49.6000     6.2700 HW1           1 RES     
   14172 HW2         30.2600    51.2130     6.1400 HW2           1 RES     
   14173 OW           9.2030    19.9530    13.1040 OW            1 RES     
   14174 HW1         10.1720    19.7120    13.0760 HW1           1 RES     
   14175 HW2          8.6490    19.1310    12.9700 HW2           1 RES     
   14176 OW          50.9040    15.3380     2.5020 OW            1 RES     
   14177 HW1         50.9010    16.3370     2.5020 HW1           1 RES     
   14178 HW2         49.9630    15.0010     2.5010 HW2           1 RES     
   14179 OW           5.7150    35.8340     6.5860 OW            1 RES     
   14180 HW1          6.6190    35.4750     6.8140 HW1           1 RES     
   14181 HW2          5.4790    36.5720     7.2190 HW2           1 RES     
   14182 OW          48.6970    31.9960    11.4810 OW            1 RES     
   14183 HW1         49.6310    31.7190    11.7050 HW1           1 RES     
   14184 HW2         48.3640    31.4540    10.7090 HW2           1 RES     
   14185 OW           9.2920    21.5600     6.4480 OW            1 RES     
   14186 HW1          9.2830    20.8390     7.1410 HW1           1 RES     
   14187 HW2         10.1800    22.0210     6.4580 HW2           1 RES     
   14188 OW          54.7840    31.3170     5.6840 OW            1 RES     
   14189 HW1         54.7600    31.9190     4.8870 HW1           1 RES     
   14190 HW2         54.0190    31.5360     6.2910 HW2           1 RES     
   14191 OW           7.5700    10.2610    10.3570 OW            1 RES     
   14192 HW1          7.7670     9.5420     9.6920 HW1           1 RES     
   14193 HW2          6.5810    10.3870    10.4310 HW2           1 RES     
   14194 OW           9.8430    36.3960     5.4410 OW            1 RES     
   14195 HW1         10.4640    36.2650     4.6690 HW1           1 RES     
   14196 HW2          9.7880    35.5520     5.9730 HW2           1 RES     
   14197 OW          45.8680    16.9850     7.5700 OW            1 RES     
   14198 HW1         45.3870    16.1130     7.6580 HW1           1 RES     
   14199 HW2         45.5520    17.4590     6.7480 HW2           1 RES     
   14200 OW          37.3140    36.4570     4.2460 OW            1 RES     
   14201 HW1         38.2770    36.6630     4.4150 HW1           1 RES     
   14202 HW2         36.9150    37.1710     3.6710 HW2           1 RES     
   14203 OW          35.3780    26.7930    10.9890 OW            1 RES     
   14204 HW1         34.7400    26.3610    11.6260 HW1           1 RES     
   14205 HW2         34.8660    27.2270    10.2480 HW2           1 RES     
   14206 OW          23.2150    51.6080     5.5890 OW            1 RES     
   14207 HW1         23.5480    52.2990     6.2300 HW1           1 RES     
   14208 HW2         23.5970    50.7160     5.8310 HW2           1 RES     
   14209 OW          52.6990    50.1890     5.8850 OW            1 RES     
   14210 HW1         52.0420    49.4360     5.8590 HW1           1 RES     
   14211 HW2         53.6140    49.8420     5.6790 HW2           1 RES     
   14212 OW          39.8280     9.4370    10.7820 OW            1 RES     
   14213 HW1         39.0180     8.8520    10.7430 HW1           1 RES     
   14214 HW2         40.6500     8.8670    10.8070 HW2           1 RES     
   14215 OW          29.5780    52.4600     2.8440 OW            1 RES     
   14216 HW1         30.0960    53.2430     2.5010 HW1           1 RES     
   14217 HW2         28.6620    52.7570     3.1130 HW2           1 RES     
   14218 OW          28.3440    43.9790    12.4730 OW            1 RES     
   14219 HW1         29.0310    43.7540    13.1640 HW1           1 RES     
   14220 HW2         27.7510    44.7070    12.8170 HW2           1 RES     
   14221 OW          18.1050    35.8320     2.5700 OW            1 RES     
   14222 HW1         18.9920    35.3740     2.5290 HW1           1 RES     
   14223 HW2         17.3750    35.1520     2.5040 HW2           1 RES     
   14224 OW          34.5440    36.6220     2.7430 OW            1 RES     
   14225 HW1         34.0530    37.4580     2.5000 HW1           1 RES     
   14226 HW2         33.9080    35.8500     2.7430 HW2           1 RES     
   14227 OW          45.7860     9.7240    13.4710 OW            1 RES     
   14228 HW1         46.7050     9.8430    13.8450 HW1           1 RES     
   14229 HW2         45.2480     9.1470    14.0850 HW2           1 RES     
   14230 OW          20.5770    41.6630     2.5030 OW            1 RES     
   14231 HW1         20.1210    41.0530     3.1500 HW1           1 RES     
   14232 HW2         20.7910    42.5300     2.9540 HW2           1 RES     
   14233 OW          19.2520    20.4220    10.5700 OW            1 RES     
   14234 HW1         19.9630    19.7390    10.7350 HW1           1 RES     
   14235 HW2         18.7990    20.6470    11.4330 HW2           1 RES     
   14236 OW           8.1250    46.3560    14.2040 OW            1 RES     
   14237 HW1          7.1340    46.2270    14.2050 HW1           1 RES     
   14238 HW2          8.3350    47.3340    14.2010 HW2           1 RES     
   14239 OW          29.3370    51.4640    10.0230 OW            1 RES     
   14240 HW1         28.6450    52.1660     9.8620 HW1           1 RES     
   14241 HW2         29.0780    50.6240     9.5460 HW2           1 RES     
   14242 OW          24.3910    19.2410    13.1770 OW            1 RES     
   14243 HW1         23.7390    18.4910    13.0740 HW1           1 RES     
   14244 HW2         25.1470    19.1170    12.5340 HW2           1 RES     
   14245 OW          40.5190    41.0910     2.7110 OW            1 RES     
   14246 HW1         41.2540    40.4200     2.7990 HW1           1 RES     
   14247 HW2         39.6350    40.6240     2.7390 HW2           1 RES     
   14248 OW          52.0790     7.4890     7.1220 OW            1 RES     
   14249 HW1         52.7310     7.9780     7.7000 HW1           1 RES     
   14250 HW2         51.4450     8.1420     6.7060 HW2           1 RES     
   14251 OW           5.5050    34.9990    11.7210 OW            1 RES     
   14252 HW1          5.1850    34.2530    12.3050 HW1           1 RES     
   14253 HW2          6.4230    35.2760    12.0060 HW2           1 RES     
   14254 OW          36.7840    29.7870    11.8080 OW            1 RES     
   14255 HW1         37.7540    29.6080    11.9700 HW1           1 RES     
   14256 HW2         36.6740    30.2740    10.9420 HW2           1 RES     
   14257 OW          19.4290    19.2520    13.0130 OW            1 RES     
   14258 HW1         18.9860    18.5610    13.5830 HW1           1 RES     
   14259 HW2         20.3390    18.9330    12.7480 HW2           1 RES     
   14260 OW          15.0500    11.8790    10.0100 OW            1 RES     
   14261 HW1         14.7650    10.9620    10.2880 HW1           1 RES     
   14262 HW2         14.5360    12.5600    10.5320 HW2           1 RES     
   14263 OW           5.8870    51.6160     9.6500 OW            1 RES     
   14264 HW1          5.8060    52.1460     8.8070 HW1           1 RES     
   14265 HW2          6.6970    51.0320     9.6000 HW2           1 RES     
   14266 OW          37.3350    37.4820     6.3980 OW            1 RES     
   14267 HW1         37.4160    36.4870     6.4440 HW1           1 RES     
   14268 HW2         38.2480    37.8900     6.3630 HW2           1 RES     
   14269 OW          42.4630    37.4280     8.4590 OW            1 RES     
   14270 HW1         42.9140    38.3200     8.4630 HW1           1 RES     
   14271 HW2         41.6420    37.4660     9.0290 HW2           1 RES     
   14272 OW          35.3290     2.5010     6.4500 OW            1 RES     
   14273 HW1         35.9500     2.7290     5.7010 HW1           1 RES     
   14274 HW2         34.8400     3.3230     6.7410 HW2           1 RES     
   14275 OW          24.0950    42.7090     4.0290 OW            1 RES     
   14276 HW1         24.8770    42.1820     3.6990 HW1           1 RES     
   14277 HW2         23.6080    43.1070     3.2510 HW2           1 RES     
   14278 OW          31.3840    41.2900    11.9910 OW            1 RES     
   14279 HW1         30.8510    40.5460    11.5880 HW1           1 RES     
   14280 HW2         31.9650    40.9270    12.7200 HW2           1 RES     
   14281 OW          34.1430    47.6690    13.5550 OW            1 RES     
   14282 HW1         34.7170    48.1680    14.2040 HW1           1 RES     
   14283 HW2         34.6540    46.8930    13.1860 HW2           1 RES     
   14284 OW          41.3830    32.3940     2.5000 OW            1 RES     
   14285 HW1         41.0950    33.2870     2.8440 HW1           1 RES     
   14286 HW2         42.2050    32.0980     2.9870 HW2           1 RES     
   14287 OW           9.7960    13.7140     4.2980 OW            1 RES     
   14288 HW1          9.5680    13.1780     5.1110 HW1           1 RES     
   14289 HW2         10.0510    13.0980     3.5530 HW2           1 RES     
   14290 OW          40.5730    19.9580     7.4230 OW            1 RES     
   14291 HW1         41.0510    19.3520     6.7870 HW1           1 RES     
   14292 HW2         39.7840    19.4810     7.8100 HW2           1 RES     
   14293 OW          23.8810    53.6030    13.5140 OW            1 RES     
   14294 HW1         24.3890    54.1170    14.2050 HW1           1 RES     
   14295 HW2         23.0590    53.2120    13.9280 HW2           1 RES     
   14296 OW          10.8220    54.7850     8.4830 OW            1 RES     
   14297 HW1         11.7300    54.4210     8.6880 HW1           1 RES     
   14298 HW2         10.1620    54.0350     8.4440 HW2           1 RES     
   14299 OW          38.7750     3.6990     8.9750 OW            1 RES     
   14300 HW1         39.1590     3.7530     9.8960 HW1           1 RES     
   14301 HW2         38.6000     4.6220     8.6320 HW2           1 RES     
   14302 OW          16.9990    18.4190     3.7960 OW            1 RES     
   14303 HW1         16.9170    19.3790     4.0620 HW1           1 RES     
   14304 HW2         17.6420    18.3380     3.0340 HW2           1 RES     
   14305 OW          34.3100    23.0460     7.4070 OW            1 RES     
   14306 HW1         35.0990    22.6290     6.9570 HW1           1 RES     
   14307 HW2         33.9830    23.8180     6.8620 HW2           1 RES     
   14308 OW          40.9540    49.7950     5.7090 OW            1 RES     
   14309 HW1         40.4800    50.6340     5.4480 HW1           1 RES     
   14310 HW2         41.9100    50.0020     5.9170 HW2           1 RES     
   14311 OW          29.3640    45.4950    10.6060 OW            1 RES     
   14312 HW1         28.3730    45.4890    10.7360 HW1           1 RES     
   14313 HW2         29.6770    44.5700    10.3890 HW2           1 RES     
   14314 OW          33.3060    40.5110    10.8210 OW            1 RES     
   14315 HW1         32.8080    39.6800    11.0670 HW1           1 RES     
   14316 HW2         34.2680    40.2900    10.6630 HW2           1 RES     
   14317 OW          25.3990    34.8970    11.4500 OW            1 RES     
   14318 HW1         26.2010    34.3010    11.4380 HW1           1 RES     
   14319 HW2         25.6540    35.7920    11.8160 HW2           1 RES     
   14320 OW          23.9570    28.5180     7.6280 OW            1 RES     
   14321 HW1         23.4160    29.3550     7.6930 HW1           1 RES     
   14322 HW2         23.3450    27.7280     7.5780 HW2           1 RES     
   14323 OW          27.1250    47.4780    11.2090 OW            1 RES     
   14324 HW1         26.2350    47.2270    11.5880 HW1           1 RES     
   14325 HW2         27.0850    48.4110    10.8520 HW2           1 RES     
   14326 OW          42.5830    52.3330    12.4120 OW            1 RES     
   14327 HW1         43.1150    53.0390    12.8800 HW1           1 RES     
   14328 HW2         41.9310    52.7650    11.7890 HW2           1 RES     
   14329 OW          22.0600    20.4890     2.8250 OW            1 RES     
   14330 HW1         22.1670    21.4820     2.8720 HW1           1 RES     
   14331 HW2         22.9570    20.0530     2.9050 HW2           1 RES     
   14332 OW          52.1160    19.7240    10.6670 OW            1 RES     
   14333 HW1         51.6040    18.9210    10.3630 HW1           1 RES     
   14334 HW2         51.5100    20.3330    11.1780 HW2           1 RES     
   14335 OW          26.1520     3.2800     6.9690 OW            1 RES     
   14336 HW1         26.6270     4.1130     6.6890 HW1           1 RES     
   14337 HW2         26.7800     2.5030     6.9160 HW2           1 RES     
   14338 OW          29.2710     7.9930     7.6060 OW            1 RES     
   14339 HW1         28.6760     8.5110     6.9920 HW1           1 RES     
   14340 HW2         29.9240     7.4610     7.0680 HW2           1 RES     
   14341 OW           7.2580     8.7580    12.6450 OW            1 RES     
   14342 HW1          7.9550     9.3860    12.9900 HW1           1 RES     
   14343 HW2          7.4640     8.5190    11.6960 HW2           1 RES     
   14344 OW          51.5940    28.6700    10.8070 OW            1 RES     
   14345 HW1         50.5990    28.7520    10.7610 HW1           1 RES     
   14346 HW2         51.8410    27.9760    11.4830 HW2           1 RES     
   14347 OW           8.4670    42.1540     7.2510 OW            1 RES     
   14348 HW1          8.0980    41.2800     6.9360 HW1           1 RES     
   14349 HW2          7.8070    42.5960     7.8590 HW2           1 RES     
   14350 OW           4.5580    24.6160     2.5150 OW            1 RES     
   14351 HW1          3.7800    25.1560     2.8310 HW1           1 RES     
   14352 HW2          4.8480    23.9910     3.2400 HW2           1 RES     
   14353 OW          39.1760    44.1660     2.5430 OW            1 RES     
   14354 HW1         38.2590    43.7700     2.5000 HW1           1 RES     
   14355 HW2         39.8560    43.4340     2.5470 HW2           1 RES     
   14356 OW           8.8910    45.9580     5.1820 OW            1 RES     
   14357 HW1          8.3490    46.6780     5.6140 HW1           1 RES     
   14358 HW2          8.7380    45.9720     4.1940 HW2           1 RES     
   14359 OW          21.7890     6.5530     8.1740 OW            1 RES     
   14360 HW1         21.6160     7.2190     7.4490 HW1           1 RES     
   14361 HW2         20.9270     6.1300     8.4520 HW2           1 RES     
   14362 OW          49.8280     5.7090    10.8150 OW            1 RES     
   14363 HW1         50.3220     6.2880    11.4630 HW1           1 RES     
   14364 HW2         48.8440     5.8380    10.9360 HW2           1 RES     
   14365 OW           4.7070    38.7340    13.9450 OW            1 RES     
   14366 HW1          4.5380    37.9420    13.3600 HW1           1 RES     
   14367 HW2          3.8350    39.1520    14.2010 HW2           1 RES     
   14368 OW          38.2930    44.1460     6.7340 OW            1 RES     
   14369 HW1         39.1390    43.7240     6.4100 HW1           1 RES     
   14370 HW2         38.4000    44.4180     7.6910 HW2           1 RES     
   14371 OW          12.0890    12.6620     6.9300 OW            1 RES     
   14372 HW1         12.8660    12.1860     6.5190 HW1           1 RES     
   14373 HW2         11.4660    12.9690     6.2100 HW2           1 RES     
   14374 OW          34.5820    14.9560     7.6380 OW            1 RES     
   14375 HW1         34.4120    13.9790     7.7610 HW1           1 RES     
   14376 HW2         35.5510    15.1490     7.7920 HW2           1 RES     
   14377 OW          35.3050     9.1070    14.2050 OW            1 RES     
   14378 HW1         35.3000     8.4220    13.4770 HW1           1 RES     
   14379 HW2         34.8100     9.9210    13.9000 HW2           1 RES     
   14380 OW          28.7150    47.1960     9.3700 OW            1 RES     
   14381 HW1         27.7520    47.2460     9.1090 HW1           1 RES     
   14382 HW2         28.9880    48.0520     9.8080 HW2           1 RES     
   14383 OW          24.8770    23.6770     8.5770 OW            1 RES     
   14384 HW1         24.4350    24.4590     8.1400 HW1           1 RES     
   14385 HW2         25.8630    23.7130     8.4090 HW2           1 RES     
   14386 OW          49.1480    10.8180    13.1960 OW            1 RES     
   14387 HW1         49.8470    10.1890    13.5340 HW1           1 RES     
   14388 HW2         48.9240    10.5910    12.2480 HW2           1 RES     
   14389 OW          15.7100    44.2110    13.8990 OW            1 RES     
   14390 HW1         15.6100    44.4780    12.9410 HW1           1 RES     
   14391 HW2         15.8730    43.2260    13.9560 HW2           1 RES     
   14392 OW          11.4200    32.8500     6.9510 OW            1 RES     
   14393 HW1         11.6920    33.4630     7.6930 HW1           1 RES     
   14394 HW2         10.4230    32.7840     6.9220 HW2           1 RES     
   14395 OW           9.3150    27.1240     9.5340 OW            1 RES     
   14396 HW1          8.6850    27.6480     8.9630 HW1           1 RES     
   14397 HW2         10.2520    27.4350     9.3700 HW2           1 RES     
   14398 OW          53.4080    36.7490     3.0260 OW            1 RES     
   14399 HW1         54.0740    36.2200     2.5010 HW1           1 RES     
   14400 HW2         52.6010    36.1850     3.2030 HW2           1 RES     
   14401 OW          19.6960     5.8450     4.5860 OW            1 RES     
   14402 HW1         18.7730     5.9370     4.9580 HW1           1 RES     
   14403 HW2         19.9080     4.8770     4.4530 HW2           1 RES     
   14404 OW          29.3190    25.4790    10.9490 OW            1 RES     
   14405 HW1         29.5950    25.4130     9.9910 HW1           1 RES     
   14406 HW2         29.0900    26.4280    11.1660 HW2           1 RES     
   14407 OW          15.7880     3.0700    10.6780 OW            1 RES     
   14408 HW1         14.8810     2.7400    10.4190 HW1           1 RES     
   14409 HW2         15.9960     3.9070    10.1730 HW2           1 RES     
   14410 OW          43.6570    47.0270     7.5460 OW            1 RES     
   14411 HW1         44.2450    46.6720     6.8210 HW1           1 RES     
   14412 HW2         44.0890    47.8250     7.9660 HW2           1 RES     
   14413 OW          48.3060     8.9670     6.9090 OW            1 RES     
   14414 HW1         48.1540     9.9270     7.1400 HW1           1 RES     
   14415 HW2         49.2850     8.7660     6.9450 HW2           1 RES     
   14416 OW           7.8710    24.5850     2.5050 OW            1 RES     
   14417 HW1          6.8950    24.3720     2.5290 HW1           1 RES     
   14418 HW2          7.9970    25.5770     2.5000 HW2           1 RES     
   14419 OW          28.0700     4.2180    13.9850 OW            1 RES     
   14420 HW1         28.6660     4.0990    13.1910 HW1           1 RES     
   14421 HW2         27.9950     5.1910    14.2030 HW2           1 RES     
   14422 OW          27.1470    44.9230     8.4360 OW            1 RES     
   14423 HW1         28.1120    45.1400     8.5800 HW1           1 RES     
   14424 HW2         27.0700    44.0600     7.9370 HW2           1 RES     
   14425 OW          49.8430    54.2260    13.3930 OW            1 RES     
   14426 HW1         50.2060    54.6820    14.2050 HW1           1 RES     
   14427 HW2         50.4930    53.5320    13.0810 HW2           1 RES     
   14428 OW          33.0510    22.6390    11.7820 OW            1 RES     
   14429 HW1         32.8930    23.6200    11.6720 HW1           1 RES     
   14430 HW2         34.0030    22.4820    12.0430 HW2           1 RES     
   14431 OW          38.1380    11.2130     8.8130 OW            1 RES     
   14432 HW1         37.5150    10.8230     8.1360 HW1           1 RES     
   14433 HW2         38.6930    10.4840     9.2150 HW2           1 RES     
   14434 OW          47.4710    37.9130     9.5330 OW            1 RES     
   14435 HW1         48.2380    37.2730     9.5760 HW1           1 RES     
   14436 HW2         47.8090    38.8480     9.6450 HW2           1 RES     
   14437 OW          19.4820     8.1540     5.6470 OW            1 RES     
   14438 HW1         20.3280     7.6260     5.7130 HW1           1 RES     
   14439 HW2         18.8150     7.8000     6.3030 HW2           1 RES     
   14440 OW          14.5740    48.2220    10.5800 OW            1 RES     
   14441 HW1         13.8700    48.6420    10.0080 HW1           1 RES     
   14442 HW2         14.2160    47.3800    10.9840 HW2           1 RES     
   14443 OW          17.1170    53.9140     7.6830 OW            1 RES     
   14444 HW1         16.3030    54.3240     8.0930 HW1           1 RES     
   14445 HW2         17.0750    54.0130     6.6880 HW2           1 RES     
   14446 OW           7.7960    18.7080     5.9430 OW            1 RES     
   14447 HW1          8.7410    19.0330     5.9560 HW1           1 RES     
   14448 HW2          7.7850    17.7100     6.0080 HW2           1 RES     
   14449 OW          17.9350    32.3560     7.8380 OW            1 RES     
   14450 HW1         18.8830    32.4640     7.5390 HW1           1 RES     
   14451 HW2         17.4780    31.6780     7.2610 HW2           1 RES     
   14452 OW          20.0720    10.1140     7.0030 OW            1 RES     
   14453 HW1         19.1020     9.8790     6.9630 HW1           1 RES     
   14454 HW2         20.6100     9.2850     7.1600 HW2           1 RES     
   14455 OW          38.8800    19.5900    12.5360 OW            1 RES     
   14456 HW1         39.7280    19.1680    12.2160 HW1           1 RES     
   14457 HW2         38.8220    19.5090    13.5320 HW2           1 RES     
   14458 OW          50.4720    47.3470     5.7000 OW            1 RES     
   14459 HW1         49.6280    46.8390     5.5320 HW1           1 RES     
   14460 HW2         50.2630    48.1840     6.2070 HW2           1 RES     
   14461 OW          43.0880    36.4120    10.3080 OW            1 RES     
   14462 HW1         43.9040    35.9890     9.9150 HW1           1 RES     
   14463 HW2         42.3230    35.7690    10.2600 HW2           1 RES     
   14464 OW          48.0010     6.5550     7.9680 OW            1 RES     
   14465 HW1         48.4550     6.3020     8.8210 HW1           1 RES     
   14466 HW2         48.6850     6.6710     7.2470 HW2           1 RES     
   14467 OW           6.3520     9.9230     5.9130 OW            1 RES     
   14468 HW1          7.1880    10.2630     5.4830 HW1           1 RES     
   14469 HW2          6.2430     8.9500     5.7070 HW2           1 RES     
   14470 OW          18.5960    53.5370     4.1910 OW            1 RES     
   14471 HW1         18.2880    52.6550     4.5470 HW1           1 RES     
   14472 HW2         17.9620    54.2540     4.4800 HW2           1 RES     
   14473 OW          52.8720    43.8780     3.8250 OW            1 RES     
   14474 HW1         53.1230    44.2440     4.7200 HW1           1 RES     
   14475 HW2         53.1860    44.5030     3.1090 HW2           1 RES     
   14476 OW          24.0370     7.2800     8.4790 OW            1 RES     
   14477 HW1         24.9590     7.2070     8.8590 HW1           1 RES     
   14478 HW2         24.0920     7.3580     7.4830 HW2           1 RES     
   14479 OW          12.1390    16.0270    10.3350 OW            1 RES     
   14480 HW1         12.7780    15.2800    10.1560 HW1           1 RES     
   14481 HW2         11.4700    16.0800     9.5940 HW2           1 RES     
   14482 OW          20.4450    21.2840    13.8850 OW            1 RES     
   14483 HW1         21.3680    21.4930    14.2050 HW1           1 RES     
   14484 HW2         19.8960    22.1200    13.8790 HW2           1 RES     
   14485 OW          16.7710    11.9340     7.8560 OW            1 RES     
   14486 HW1         16.4370    12.6390     8.4810 HW1           1 RES     
   14487 HW2         16.1210    11.1740     7.8330 HW2           1 RES     
   14488 OW          39.2130    33.1050     4.6810 OW            1 RES     
   14489 HW1         38.7940    33.6330     5.4190 HW1           1 RES     
   14490 HW2         40.0810    32.7200     4.9970 HW2           1 RES     
   14491 OW          16.9290    30.1820    11.2980 OW            1 RES     
   14492 HW1         17.7390    29.8290    10.8320 HW1           1 RES     
   14493 HW2         17.2010    30.6210    12.1540 HW2           1 RES     
   14494 OW          26.1700    11.0710    12.7610 OW            1 RES     
   14495 HW1         26.9840    10.5580    12.4910 HW1           1 RES     
   14496 HW2         25.5830    10.4930    13.3280 HW2           1 RES     
   14497 OW           7.4720    35.8430     4.8190 OW            1 RES     
   14498 HW1          7.8680    34.9620     5.0760 HW1           1 RES     
   14499 HW2          8.0640    36.2930     4.1510 HW2           1 RES     
   14500 OW          39.9760    24.0320    13.3990 OW            1 RES     
   14501 HW1         39.0020    23.8760    13.5570 HW1           1 RES     
   14502 HW2         40.4750    23.1740    13.5170 HW2           1 RES     
   14503 OW          22.8090    27.1170     5.4290 OW            1 RES     
   14504 HW1         23.3740    26.3080     5.5890 HW1           1 RES     
   14505 HW2         23.3880    27.8750     5.1310 HW2           1 RES     
   14506 OW          17.6230    34.0510     4.8650 OW            1 RES     
   14507 HW1         16.8650    34.6370     4.5820 HW1           1 RES     
   14508 HW2         18.3250    34.0460     4.1520 HW2           1 RES     
   14509 OW           2.5130    42.5660    11.5330 OW            1 RES     
   14510 HW1          3.4250    42.8580    11.2460 HW1           1 RES     
   14511 HW2          2.5020    41.5720    11.6460 HW2           1 RES     
   14512 OW          46.7340    17.7580    11.6750 OW            1 RES     
   14513 HW1         45.9010    18.3090    11.6860 HW1           1 RES     
   14514 HW2         47.3370    18.0490    12.4190 HW2           1 RES     
   14515 OW          48.8900    16.1910    12.2160 OW            1 RES     
   14516 HW1         48.9950    16.7420    13.0430 HW1           1 RES     
   14517 HW2         47.9260    15.9550    12.0910 HW2           1 RES     
   14518 OW          13.5500    45.1160     9.9790 OW            1 RES     
   14519 HW1         12.9340    45.9030     9.9770 HW1           1 RES     
   14520 HW2         14.2480    45.2360     9.2730 HW2           1 RES     
   14521 OW          33.9970     9.0440     3.9730 OW            1 RES     
   14522 HW1         34.2820     8.2000     4.4270 HW1           1 RES     
   14523 HW2         34.5930     9.7950     4.2590 HW2           1 RES     
   14524 OW          21.0090     9.4110     4.6230 OW            1 RES     
   14525 HW1         20.7010    10.2720     4.2210 HW1           1 RES     
   14526 HW2         22.0000     9.4410     4.7590 HW2           1 RES     
   14527 OW          37.3530    30.6000     8.3470 OW            1 RES     
   14528 HW1         37.5340    29.8280     8.9550 HW1           1 RES     
   14529 HW2         37.6180    30.3580     7.4130 HW2           1 RES     
   14530 OW          30.0510    12.2280     4.3660 OW            1 RES     
   14531 HW1         30.1520    13.1960     4.5950 HW1           1 RES     
   14532 HW2         30.9550    11.8160     4.2520 HW2           1 RES     
   14533 OW          31.8060    18.8100    14.1970 OW            1 RES     
   14534 HW1         32.5920    19.3580    13.9090 HW1           1 RES     
   14535 HW2         31.6950    18.0340    13.5760 HW2           1 RES     
   14536 OW           6.0120    11.4330     7.8570 OW            1 RES     
   14537 HW1          6.9350    11.0730     7.7240 HW1           1 RES     
   14538 HW2          5.8950    11.7090     8.8110 HW2           1 RES     
   14539 OW          23.1810    34.3460     4.2970 OW            1 RES     
   14540 HW1         23.8440    33.7510     3.8440 HW1           1 RES     
   14541 HW2         23.2560    34.2350     5.2880 HW2           1 RES     
   14542 OW          46.2280     3.4790     6.7030 OW            1 RES     
   14543 HW1         46.7110     4.3540     6.7200 HW1           1 RES     
   14544 HW2         45.2420     3.6420     6.6960 HW2           1 RES     
   14545 OW          24.7480    29.7190    12.8830 OW            1 RES     
   14546 HW1         23.9380    29.1770    12.6620 HW1           1 RES     
   14547 HW2         24.8350    29.7990    13.8770 HW2           1 RES     
   14548 OW          37.1790    23.0620     5.9330 OW            1 RES     
   14549 HW1         37.7740    22.6160     5.2660 HW1           1 RES     
   14550 HW2         37.2610    24.0550     5.8440 HW2           1 RES     
   14551 OW          13.6820    22.4170     8.2680 OW            1 RES     
   14552 HW1         13.3530    23.0800     7.5960 HW1           1 RES     
   14553 HW2         14.1750    21.6830     7.8000 HW2           1 RES     
   14554 OW          36.2480    42.6090     8.2090 OW            1 RES     
   14555 HW1         35.6480    43.4080     8.1750 HW1           1 RES     
   14556 HW2         37.0980    42.8500     8.6770 HW2           1 RES     
   14557 OW          51.8270     3.4640    11.3330 OW            1 RES     
   14558 HW1         51.4790     4.3950    11.4380 HW1           1 RES     
   14559 HW2         51.0620     2.8360    11.1900 HW2           1 RES     
   14560 OW          44.7970    49.6780    12.7060 OW            1 RES     
   14561 HW1         45.5030    49.0100    12.4720 HW1           1 RES     
   14562 HW2         45.0180    50.5580    12.2870 HW2           1 RES     
   14563 OW          19.8160     2.5140     8.6180 OW            1 RES     
   14564 HW1         20.6310     2.5010     8.0400 HW1           1 RES     
   14565 HW2         19.0610     2.9420     8.1210 HW2           1 RES     
   14566 OW          10.1830    45.1660    10.8390 OW            1 RES     
   14567 HW1         10.6050    44.2640    10.7610 HW1           1 RES     
   14568 HW2         10.8900    45.8720    10.7910 HW2           1 RES     
   14569 OW          27.4720    26.8740    13.0630 OW            1 RES     
   14570 HW1         27.6810    25.8960    13.0550 HW1           1 RES     
   14571 HW2         28.3210    27.3970    12.9860 HW2           1 RES     
   14572 OW          45.6670    21.3450    13.2620 OW            1 RES     
   14573 HW1         45.0170    20.6910    12.8770 HW1           1 RES     
   14574 HW2         46.0890    20.9540    14.0800 HW2           1 RES     
   14575 OW          16.4720    35.1740     9.9570 OW            1 RES     
   14576 HW1         15.7470    35.7840     9.6410 HW1           1 RES     
   14577 HW2         16.2380    34.8150    10.8600 HW2           1 RES     
   14578 OW          23.0160     3.5050     8.4660 OW            1 RES     
   14579 HW1         22.3310     3.8620     9.1010 HW1           1 RES     
   14580 HW2         23.2120     2.5500     8.6890 HW2           1 RES     
   14581 OW          29.6120    31.5160     6.8500 OW            1 RES     
   14582 HW1         28.9200    31.9210     6.2530 HW1           1 RES     
   14583 HW2         29.1730    31.1590     7.6750 HW2           1 RES     
   14584 OW          14.6440    13.2120     3.3400 OW            1 RES     
   14585 HW1         13.8780    13.8200     3.1350 HW1           1 RES     
   14586 HW2         15.1560    13.0250     2.5000 HW2           1 RES     
   14587 OW          52.0630    16.0850     7.5740 OW            1 RES     
   14588 HW1         52.5360    15.9470     6.7050 HW1           1 RES     
   14589 HW2         52.4710    16.8600     8.0570 HW2           1 RES     
   14590 OW           3.3400    49.5740     7.0310 OW            1 RES     
   14591 HW1          2.5000    49.0710     6.8320 HW1           1 RES     
   14592 HW2          3.3660    50.4120     6.4840 HW2           1 RES     
@<TRIPOS>BOND
       1     2249     2250 1
       2     2283     2285 1
       3     9772     9773 1
       4    12499    12500 1
       5     7342     7343 1
       6     8455     8456 1
       7     5035     5036 1
       8     3685     3686 1
       9     9166     9168 1
      10     9004     9006 1
      11    12163    12165 1
      12    12082    12084 1
      13    14080    14082 1
      14    11467    11469 1
      15     8761     8763 1
      16     8923     8925 1
      17     7939     7940 1
      18     7270     7272 1
      19     8449     8450 1
      20     1230     1231 1
      21     3066     3067 1
      22      267      268 1
      23     1992     1993 1
      24     1341     1342 1
      25      230      229 1
      26     5158     5159 1
      27     1382     1383 1
      28    12013    12015 1
      29     2963     2964 1
      30     1877     1878 1
      31     9379     9381 1
      32     1016     1017 1
      33     2639     2640 1
      34     8620     8622 1
      35      254      255 1
      36     5839     5840 1
      37     7876     7878 1
      38      803      804 1
      39      172      170 1
      40     8872     8874 1
      41     7345     7347 1
      42     5699     5700 1
      43     6773     6774 1
      44     3974     3975 1
      45    10807    10808 1
      46    10552    10553 1
      47    13819    13820 1
      48    10066    10067 1
      49     8311     8312 1
      50     7312     7313 1
      51    13306    13307 1
      52     5037     5039 1
      53    13468    13469 1
      54    10648    10650 1
      55    10417    10418 1
      56    14164    14165 1
      57     6654     6653 1
      58    13210    13211 1
      59     4751     4752 1
      60     7840     7841 1
      61    13990    13992 1
      62    12181    12182 1
      63     8941     8942 1
      64    14098    14099 1
      65     2294     2295 1
      66     1103     1104 1
      67      177      178 1
      68     6946     6947 1
      69     8779     8780 1
      70     8563     8564 1
      71     1116     1117 1
      72      139      140 1
      73    13447    13449 1
      74     6682     6683 1
      75     5395     5396 1
      76     4846     4847 1
      77     4238     4239 1
      78     1627     1628 1
      79    12961    12963 1
      80     3608     3609 1
      81     4682     4683 1
      82     5555     5556 1
      83     6317     6318 1
      84     4481     4482 1
      85     5624     5627 1
      86     3788     3791 1
      87     1189     1192 1
      88     3683     3684 1
      89    13318    13319 1
      90     1137     1138 1
      91     5628     5629 1
      92     3792     3793 1
      93     2092     2093 1
      94     8929     8930 1
      95      999     1000 1
      96     2835     2836 1
      97    13906    13907 1
      98    12169    12170 1
      99     1800     1801 1
     100     1377     1378 1
     101     2451     2452 1
     102      726      727 1
     103      615      616 1
     104       71       72 1
     105     3213     3214 1
     106      504      505 1
     107     4891     4892 1
     108     6362     6363 1
     109     4526     4527 1
     110     7585     7586 1
     111     6666     6665 1
     112     8884     8886 1
     113    12571    12573 1
     114    11965    11966 1
     115     4669     4668 1
     116     3419     3420 1
     117     4119     4121 1
     118     5955     5957 1
     119     2653     2654 1
     120     2607     2608 1
     121      817      818 1
     122     8197     8199 1
     123     4180     4181 1
     124     1889     1890 1
     125      365      366 1
     126     4138     4139 1
     127     5974     5975 1
     128    11428    11429 1
     129    10027    10028 1
     130     6928     6929 1
     131     2665     2666 1
     132    12121    12122 1
     133      829      830 1
     134     5781     5782 1
     135     1076     1077 1
     136    13417    13419 1
     137    11188    11189 1
     138    12670    12671 1
     139      490      491 1
     140     7063     7065 1
     141     2618     2619 1
     142     1856     1857 1
     143     2812     2813 1
     144      976      977 1
     145    13735    13737 1
     146    10108    10109 1
     147      932      933 1
     148     9058     9060 1
     149    11464    11465 1
     150     2546     2548 1
     151      710      712 1
     152     9439     9441 1
     153     5069     5070 1
     154    11878    11879 1
     155     8215     8216 1
     156    11716    11717 1
     157    10000    10001 1
     158     6649     6650 1
     159     6603     6604 1
     160     9016     9017 1
     161     4813     4814 1
     162    12094    12095 1
     163    12862    12863 1
     164     8626     8628 1
     165     7627     7629 1
     166     8788     8790 1
     167    12028    12030 1
     168     9706     9708 1
     169    12946    12948 1
     170     6856     6857 1
     171    10414    10416 1
     172     8497     8499 1
     173     5306     5307 1
     174     7426     7427 1
     175     3687     3688 1
     176     4601     4602 1
     177     6584     6585 1
     178     9409     9410 1
     179    14095    14096 1
     180     4748     4749 1
     181     1929     1928 1
     182     1728     1727 1
     183     4199     4200 1
     184      304      283 1
     185     8938     8939 1
     186      457      458 1
     187      346      347 1
     188     1756     1757 1
     189     2182     2183 1
     190     4646     4648 1
     191     3998     4000 1
     192    10879    10881 1
     193     5531     5532 1
     194     7477     7479 1
     195     9556     9558 1
     196    12796    12798 1
     197     5642     5643 1
     198     9313     9315 1
     199     2863     2866 1
     200    10717    10719 1
     201    14551    14553 1
     202    12691    12693 1
     203     4531     4532 1
     204     6395     6396 1
     205     3101     3102 1
     206    10756    10757 1
     207     3214     3215 1
     208    14590    14591 1
     209    12952    12954 1
     210     2804     2805 1
     211      968      969 1
     212     2042     2043 1
     213     5922     5924 1
     214    13363    13364 1
     215    11065    11067 1
     216     9229     9231 1
     217      809      808 1
     218     2729     2730 1
     219     7531     7533 1
     220     8488     8490 1
     221    10405    10407 1
     222    10051    10053 1
     223     9865     9867 1
     224     9136     9138 1
     225    13483    13485 1
     226    10243    10245 1
     227    14455    14457 1
     228    11941    11943 1
     229    10429    10431 1
     230     1205     1206 1
     231     2615     2616 1
     232     3041     3042 1
     233     3972     3973 1
     234     6240     6241 1
     235     4855     4856 1
     236     6043     6044 1
     237     6580     6581 1
     238     4099     4100 1
     239     4207     4208 1
     240     3985     3986 1
     241     6860     6862 1
     242     4484     4486 1
     243     4376     4378 1
     244     6046     6047 1
     245    12427    12428 1
     246    12505    12507 1
     247     5876     5877 1
     248     4625     4626 1
     249     6461     6462 1
     250    14014    14015 1
     251     9520     9521 1
     252     5188     5187 1
     253     9160     9161 1
     254      878      879 1
     255     3362     3363 1
     256     1526     1527 1
     257     1958     1959 1
     258     1710     1711 1
     259     6147     6148 1
     260     5073     5074 1
     261     3486     3487 1
     262     1353     1354 1
     263     6573     6574 1
     264     4914     4913 1
     265     6909     6910 1
     266     6709     6710 1
     267    11485    11486 1
     268     5283     5284 1
     269      891      892 1
     270     4982     4983 1
     271     6324     6325 1
     272     3018     3017 1
     273     1071     1070 1
     274    10939    10941 1
     275     9859     9861 1
     276     9697     9699 1
     277     7780     7782 1
     278     7162     7164 1
     279     7861     7863 1
     280    13018    13020 1
     281     9778     9780 1
     282     7909     7910 1
     283    11182    11184 1
     284     9277     9278 1
     285     7000     7002 1
     286     5523     5525 1
     287     7015     7017 1
     288     9826     9828 1
     289     1697     1698 1
     290      385      386 1
     291      339      340 1
     292     2221     2222 1
     293     6607     6608 1
     294     8008     8009 1
     295    11908    11909 1
     296     9709     9710 1
     297     8668     8669 1
     298     4882     4883 1
     299    12949    12950 1
     300     8128     8129 1
     301     3870     3871 1
     302     8170     8171 1
     303    13447    13448 1
     304     1524     1525 1
     305    11251    11253 1
     306    13168    13170 1
     307    12925    12927 1
     308     7930     7932 1
     309     9928     9930 1
     310     1898     1899 1
     311     1064     1065 1
     312     1224     1225 1
     313    12007    12008 1
     314    10090    10092 1
     315     5150     5151 1
     316    12985    12986 1
     317     4138     4117 1
     318     5974     5953 1
     319     8251     8252 1
     320     5455     5458 1
     321    11977    11978 1
     322     6434     6435 1
     323      220      221 1
     324    12826    12828 1
     325     9082     9084 1
     326     5712     5711 1
     327     3876     3875 1
     328     4572     4573 1
     329     5252     5253 1
     330     3924     3925 1
     331     2499     2501 1
     332     6840     6841 1
     333     2965     2966 1
     334     2428     2429 1
     335     2641     2642 1
     336      367      368 1
     337     1879     1880 1
     338     4447     4448 1
     339     1666     1667 1
     340     4772     4773 1
     341    10138    10139 1
     342     3847     3848 1
     343     5683     5684 1
     344     3984     3985 1
     345     4746     4747 1
     346     5820     5821 1
     347     5188     5186 1
     348     2919     2920 1
     349     3086     3089 1
     350     1250     1253 1
     351    14290    14291 1
     352    14563    14564 1
     353     1956     1957 1
     354    11578    11579 1
     355    12469    12470 1
     356     4542     4541 1
     357    11851    11852 1
     358     1978     1957 1
     359     7084     7086 1
     360     1452     1453 1
     361     2415     2416 1
     362     3288     3289 1
     363      579      580 1
     364      690      691 1
     365     2526     2527 1
     366     3177     3178 1
     367      186      187 1
     368      947      946 1
     369     2783     2782 1
     370     2149     2150 1
     371     1399     1400 1
     372     3346     3347 1
     373     1282     1283 1
     374     1393     1394 1
     375     4589     4590 1
     376     2021     2022 1
     377     4556     4557 1
     378     1942     1943 1
     379     1720     1721 1
     380      947      948 1
     381     2783     2784 1
     382     1781     1782 1
     383     2537     2538 1
     384      701      702 1
     385     3001     3002 1
     386     5361     5362 1
     387     4111     4112 1
     388     3525     3526 1
     389    11092    11093 1
     390     6456     6457 1
     391      854      855 1
     392    10036    10037 1
     393     6964     6965 1
     394    14575    14576 1
     395    10822    10824 1
     396        8       11 1
     397     5246     5249 1
     398    11605    11606 1
     399    10282    10283 1
     400     8527     8528 1
     401      144      146 1
     402    11131    11133 1
     403     2002     2003 1
     404     1872     1874 1
     405    10966    10967 1
     406     1398     1399 1
     407      429      430 1
     408     1325     1326 1
     409     7888     7889 1
     410     7564     7565 1
     411    12964    12965 1
     412    13234    13235 1
     413    11236    11237 1
     414     4760     4761 1
     415     3272     3273 1
     416     1436     1437 1
     417     6285     6286 1
     418     3139     3140 1
     419     2611     2610 1
     420      775      774 1
     421     5211     5212 1
     422     4449     4450 1
     423     6314     6315 1
     424     4320     4319 1
     425     6468     6467 1
     426     4521     4520 1
     427     6156     6155 1
     428     1774     1775 1
     429     1885     1886 1
     430     1355     1354 1
     431    10300    10302 1
     432     9892     9893 1
     433     5925     5926 1
     434     2803     2804 1
     435      214      215 1
     436     6115     6116 1
     437     6332     6331 1
     438     4496     4495 1
     439     5791     5792 1
     440     3993     3994 1
     441     3631     3632 1
     442     4305     4306 1
     443     8047     8049 1
     444     4587     4588 1
     445     2058     2059 1
     446    12124    12126 1
     447    13732    13734 1
     448     2091     2092 1
     449      651      652 1
     450     3032     3033 1
     451     2384     2385 1
     452      548      549 1
     453     1196     1197 1
     454    14092    14093 1
     455    12655    12657 1
     456     9064     9066 1
     457     8935     8936 1
     458     3838     3835 1
     459    14446    14447 1
     460     3953     3954 1
     461     5789     5790 1
     462     5174     5175 1
     463     6186     6187 1
     464     4467     4468 1
     465     4152     4153 1
     466     5991     5992 1
     467     5226     5227 1
     468     1767     1766 1
     469     5229     5230 1
     470     6303     6304 1
     471     5988     5989 1
     472     4078     4079 1
     473     3865     3866 1
     474     6130     6131 1
     475     6445     6446 1
     476     6133     6134 1
     477     5318     5319 1
     478    14314    14315 1
     479     7885     7886 1
     480     7723     7724 1
     481    13879    13880 1
     482    13057    13058 1
     483     8398     8399 1
     484     3762     3763 1
     485     9304     9305 1
     486     7561     7562 1
     487     8737     8738 1
     488     4842     4843 1
     489    10198    10199 1
     490    13438    13439 1
     491     8953     8954 1
     492    10672    10674 1
     493     3598     3599 1
     494     5413     5412 1
     495     3236     3237 1
     496     2912     2913 1
     497     1538     1539 1
     498    10576    10577 1
     499     9763     9765 1
     500     6505     6506 1
     501     7921     7923 1
     502     7687     7689 1
     503    11743    11745 1
     504    10207    10208 1
     505     7594     7595 1
     506    13360    13361 1
     507     2799     2800 1
     508       95       96 1
     509      677      678 1
     510      665      666 1
     511     1539     1540 1
     512      413      414 1
     513    12067    12068 1
     514     5529     5530 1
     515     8989     8990 1
     516     5237     5238 1
     517     6311     6312 1
     518     3602     3603 1
     519     4688     4689 1
     520     6200     6201 1
     521     5450     5451 1
     522     5438     5439 1
     523     6524     6525 1
     524     6851     6850 1
     525     4904     4903 1
     526     7225     7226 1
     527     3133     3136 1
     528     2114     2116 1
     529     9658     9659 1
     530    13417    13418 1
     531    13822    13823 1
     532    13741    13742 1
     533    11392    11393 1
     534     8071     8072 1
     535    13903    13904 1
     536     9907     9908 1
     537    10420    10421 1
     538     5030     5032 1
     539    11743    11744 1
     540     2104     2105 1
     541     8842     8844 1
     542    12001    12003 1
     543     8680     8682 1
     544    13918    13920 1
     545    13999    14001 1
     546     8308     8310 1
     547    12424    12425 1
     548    13837    13839 1
     549     7171     7173 1
     550     6931     6933 1
     551     6431     6432 1
     552      454      455 1
     553     2290     2291 1
     554     2947     2948 1
     555     3265     3266 1
     556     1750     1751 1
     557     1429     1430 1
     558     1111     1112 1
     559     2179     2180 1
     560    11209    11210 1
     561     1861     1862 1
     562     3686     3687 1
     563      764      767 1
     564    11014    11016 1
     565     8962     8964 1
     566     4340     4341 1
     567     1903     1904 1
     568     4676     4677 1
     569    14119    14121 1
     570     7963     7965 1
     571    11932    11934 1
     572     6512     6513 1
     573    11365    11367 1
     574    14248    14249 1
     575    10933    10935 1
     576    10621    10623 1
     577    10399    10400 1
     578      749      750 1
     579     1505     1506 1
     580     3341     3342 1
     581     2585     2586 1
     582     7972     7973 1
     583     7378     7380 1
     584    10618    10620 1
     585     7459     7461 1
     586     1678     1679 1
     587    12511    12513 1
     588     9271     9273 1
     589    12346    12348 1
     590    12265    12267 1
     591     1760     1761 1
     592     1529     1530 1
     593     3365     3366 1
     594     3960     3961 1
     595     4293     4294 1
     596     1733     1734 1
     597     4818     4819 1
     598     5444     5445 1
     599     4370     4371 1
     600     6206     6207 1
     601     5272     5273 1
     602     3760     3761 1
     603     6353     6354 1
     604     5596     5597 1
     605     7522     7523 1
     606    13933    13934 1
     607     4517     4518 1
     608     7126     7127 1
     609     2973     2974 1
     610     7201     7203 1
     611     1494     1495 1
     612     3330     3331 1
     613      330      331 1
     614     2166     2167 1
     615     3354     3355 1
     616     1518     1519 1
     617     2922     2923 1
     618    11206    11208 1
     619     4334     4333 1
     620    11572    11574 1
     621    13444    13446 1
     622    13240    13241 1
     623     2328     2329 1
     624     4614     4615 1
     625      492      493 1
     626    13774    13776 1
     627     8065     8067 1
     628     5665     5666 1
     629     1644     1645 1
     630     5350     5347 1
     631     3514     3511 1
     632    13138    13139 1
     633    14554    14555 1
     634    12058    12059 1
     635     7618     7620 1
     636    11776    11778 1
     637    11938    11940 1
     638    11020    11022 1
     639    10858    10860 1
     640    10453    10455 1
     641    12775    12777 1
     642     9535     9537 1
     643    13693    13695 1
     644      375      374 1
     645     2211     2210 1
     646    11098    11100 1
     647    13102    13104 1
     648     3114     3116 1
     649     1278     1280 1
     650     2391     2392 1
     651     6447     6448 1
     652     6715     6716 1
     653     4879     4880 1
     654     5104     5105 1
     655    11749    11750 1
     656     5215     5216 1
     657    11086    11088 1
     658     7237     7238 1
     659     4993     4994 1
     660     2688     2689 1
     661     4220     4221 1
     662    11998    12000 1
     663     9781     9782 1
     664    14089    14090 1
     665     4175     4173 1
     666     3706     3685 1
     667     5002     4981 1
     668     6011     6009 1
     669     1060     1061 1
     670     9421     9423 1
     671    13657    13658 1
     672    11200    11201 1
     673    12151    12152 1
     674     7129     7130 1
     675     3626     3627 1
     676      436      437 1
     677     2272     2273 1
     678     1516     1517 1
     679     5623     5624 1
     680    13069    13071 1
     681    12832    12834 1
     682    11698    11699 1
     683     9964     9966 1
     684     9628     9630 1
     685    11287    11289 1
     686    11827    11829 1
     687     8413     8415 1
     688    11653    11655 1
     689    13420    13422 1
     690    13204    13206 1
     691     8035     8037 1
     692     3918     3919 1
     693     6136     6115 1
     694     6063     6064 1
     695     4981     4982 1
     696     4227     4228 1
     697    10192    10194 1
     698    13945    13947 1
     699    12190    12192 1
     700     9274     9276 1
     701    12514    12516 1
     702    13783    13785 1
     703     3931     3932 1
     704     7789     7791 1
     705     9868     9870 1
     706     8113     8115 1
     707    11506    11507 1
     708    13261    13262 1
     709    11449    11451 1
     710      477      478 1
     711     1776     1777 1
     712     2310     2311 1
     713     2202     2203 1
     714     2424     2425 1
     715     1887     1888 1
     716     9802     9804 1
     717     6940     6942 1
     718      877      878 1
     719      474      475 1
     720    11248    11249 1
     721     8560     8562 1
     722     3914     3915 1
     723     2914     2915 1
     724      316      317 1
     725     2152     2153 1
     726     3226     3227 1
     727      427      428 1
     728      518      519 1
     729     2354     2355 1
     730     3428     3429 1
     731     1592     1593 1
     732     8173     8174 1
     733     1797     1799 1
     734     2553     2555 1
     735     7300     7302 1
     736     7234     7235 1
     737    10072    10074 1
     738      106      107 1
     739     2084     2085 1
     740      116      118 1
     741     4566     4567 1
     742    10855    10857 1
     743     6026     6027 1
     744     5702     5703 1
     745     6227     6228 1
     746     5753     5754 1
     747    14281    14282 1
     748      641      642 1
     749     5961     5960 1
     750     6701     6700 1
     751     4865     4864 1
     752    11860    11861 1
     753    12235    12237 1
     754     5103     5104 1
     755     1303     1304 1
     756     1516     1514 1
     757      501      502 1
     758     2337     2338 1
     759     1578     1579 1
     760     3414     3415 1
     761      436      434 1
     762     2383     2384 1
     763      547      548 1
     764     9295     9296 1
     765     8320     8321 1
     766     1910     1911 1
     767     2962     2963 1
     768      259      260 1
     769     1015     1016 1
     770     5516     5519 1
     771    12130    12131 1
     772     2809     2812 1
     773    10657    10658 1
     774     7309     7310 1
     775     7660     7661 1
     776    12736    12737 1
     777    10819    10820 1
     778    12898    12899 1
     779    14464    14465 1
     780    12547    12548 1
     781     3189     3190 1
     782     7579     7580 1
     783     6237     6238 1
     784     2041     2042 1
     785    10465    10467 1
     786     1158     1159 1
     787      936      937 1
     788     2772     2773 1
     789     3105     3106 1
     790     1047     1048 1
     791     2460     2461 1
     792     2883     2884 1
     793    12718    12719 1
     794      359      360 1
     795    10747    10749 1
     796     5611     5610 1
     797     3775     3774 1
     798     6806     6808 1
     799     4322     4324 1
     800     4862     4864 1
     801     4970     4972 1
     802     6077     6078 1
     803     4022     4023 1
     804     5858     5859 1
     805     5096     5097 1
     806    11842    11843 1
     807    13759    13760 1
     808    10936    10937 1
     809     3978     3979 1
     810    13015    13016 1
     811    13597    13598 1
     812     8440     8441 1
     813     9775     9776 1
     814     8602     8603 1
     815     7858     7859 1
     816     6838     6839 1
     817     5002     5003 1
     818     6514     6515 1
     819     1597     1598 1
     820     1375     1376 1
     821     4678     4679 1
     822     3211     3212 1
     823     2674     2675 1
     824     3208     3209 1
     825      103      104 1
     826     2696     2697 1
     827     2807     2808 1
     828     1172     1173 1
     829     1174     1175 1
     830     3729     3730 1
     831     6449     6450 1
     832     4826     4827 1
     833     4613     4614 1
     834     5650     5629 1
     835    13909    13910 1
     836     4994     4995 1
     837    13741    13743 1
     838     6751     6754 1
     839     3242     3244 1
     840     1406     1408 1
     841      792      793 1
     842     6967     6969 1
     843    14269    14270 1
     844    10792    10794 1
     845     7480     7482 1
     846    12637    12639 1
     847    11881    11883 1
     848    13636    13638 1
     849     9736     9738 1
     850    10720    10722 1
     851     4790     4791 1
     852     7981     7983 1
     853     9559     9561 1
     854    12799    12801 1
     855     3788     3789 1
     856     7303     7305 1
     857    13660    13661 1
     858    12466    12467 1
     859     5931     5932 1
     860    13885    13886 1
     861    10969    10970 1
     862     7369     7370 1
     863    11689    11690 1
     864    13237    13238 1
     865    10609    10610 1
     866     8731     8732 1
     867     7891     7892 1
     868    12157    12158 1
     869    12886    12887 1
     870     3937     3938 1
     871     3712     3713 1
     872     2178     2179 1
     873     5548     5549 1
     874    12745    12746 1
     875    12112    12113 1
     876     4048     4049 1
     877     5908     5909 1
     878    14434    14435 1
     879     7654     7655 1
     880      352      353 1
     881     3262     3263 1
     882      784      785 1
     883     2620     2621 1
     884     1315     1316 1
     885     1858     1859 1
     886     1536     1537 1
     887     2509     2510 1
     888     1426     1427 1
     889     2188     2189 1
     890    14137    14139 1
     891     5701     5702 1
     892     6559     6560 1
     893     5257     5258 1
     894    12256    12258 1
     895    14578    14580 1
     896    14416    14418 1
     897     3908     3909 1
     898     6506     6507 1
     899    12337    12339 1
     900    10501    10503 1
     901     5000     5001 1
     902     5201     5202 1
     903    12418    12420 1
     904     1363     1364 1
     905     3199     3200 1
     906      271      274 1
     907     1994     1995 1
     908      482      483 1
     909      476      477 1
     910     2423     2424 1
     911    10456    10458 1
     912     2312     2313 1
     913     2890     2891 1
     914     1769     1770 1
     915    10510    10511 1
     916      824      825 1
     917     4283     4284 1
     918     5801     5802 1
     919     5264     5265 1
     920     4508     4509 1
     921    12268    12270 1
     922     7216     7218 1
     923     3965     3966 1
     924    14077    14079 1
     925      923      924 1
     926     2759     2760 1
     927     9190     9192 1
     928     6434     6437 1
     929    11767    11768 1
     930    12928    12929 1
     931    10444    10445 1
     932     7933     7934 1
     933    13090    13091 1
     934    13684    13685 1
     935    11929    11930 1
     936     3026     3028 1
     937    11374    11375 1
     938     7405     7407 1
     939    14374    14376 1
     940    11482    11484 1
     941    11296    11298 1
     942     9973     9975 1
     943    13807    13809 1
     944    12211    12213 1
     945    11566    11568 1
     946    11644    11646 1
     947    10321    10323 1
     948     5376     5377 1
     949     6450     6451 1
     950     3775     3776 1
     951     6685     6686 1
     952     6262     6263 1
     953     4738     4739 1
     954     3540     3541 1
     955     5500     5501 1
     956     3944     3946 1
     957     6212     6214 1
     958     2102     2103 1
     959     7378     7379 1
     960     5300     5301 1
     961     3830     3831 1
     962     5666     5667 1
     963     5453     5454 1
     964     4409     4410 1
     965     6245     6246 1
     966     4043     4044 1
     967     5330     5331 1
     968     3869     3870 1
     969     5879     5880 1
     970     5705     5706 1
     971     5435     5436 1
     972     6460     6439 1
     973     4624     4603 1
     974     6810     6811 1
     975     1950     1951 1
     976       89       90 1
     977     8455     8457 1
     978     2724     2725 1
     979      777      778 1
     980     5539     5540 1
     981     4307     4308 1
     982     4424     4425 1
     983    13810    13811 1
     984     6260     6261 1
     985     8596     8598 1
     986    10150    10151 1
     987     5516     5518 1
     988     9103     9105 1
     989    14422    14424 1
     990    14260    14262 1
     991     7066     7068 1
     992    12262    12264 1
     993    14179    14181 1
     994    10507    10509 1
     995    12424    12426 1
     996    12343    12345 1
     997     4155     4156 1
     998     5559     5560 1
     999     1361     1362 1
    1000    14581    14582 1
    1001     6633     6634 1
    1002     4908     4909 1
    1003     3723     3724 1
    1004     3197     3198 1
    1005     6819     6821 1
    1006     4797     4798 1
    1007     7939     7941 1
    1008     5695     5696 1
    1009     3859     3860 1
    1010    11104    11106 1
    1011    10783    10784 1
    1012     2018     2019 1
    1013     4432     4429 1
    1014     6503     6504 1
    1015     2129     2130 1
    1016     6070     6071 1
    1017    12544    12545 1
    1018    11314    11315 1
    1019     9991     9992 1
    1020     9493     9494 1
    1021    14203    14204 1
    1022    13408    13409 1
    1023     9640     9641 1
    1024    12895    12896 1
    1025     6076     6077 1
    1026    10153    10154 1
    1027      595      598 1
    1028     6244     6223 1
    1029        7        8 1
    1030     7240     7242 1
    1031     2858     2859 1
    1032     1022     1023 1
    1033     8677     8679 1
    1034     2928     2929 1
    1035     9916     9918 1
    1036    12277    12279 1
    1037     9199     9201 1
    1038    13357    13359 1
    1039     8632     8634 1
    1040    12034    12036 1
    1041     8794     8796 1
    1042    13519    13521 1
    1043     8362     8364 1
    1044     9712     9714 1
    1045    10684    10686 1
    1046     2654     2655 1
    1047      214      213 1
    1048      818      819 1
    1049     3621     3622 1
    1050     5457     5458 1
    1051     5594     5595 1
    1052     6668     6669 1
    1053     9943     9944 1
    1054     9469     9470 1
    1055    13456    13457 1
    1056     1352     1354 1
    1057     1656     1658 1
    1058     7834     7835 1
    1059     1719     1720 1
    1060    12991    12992 1
    1061    14026    14027 1
    1062      566      567 1
    1063     7291     7293 1
    1064     5888     5890 1
    1065    11242    11243 1
    1066     1219     1218 1
    1067     4788     4789 1
    1068     6872     6873 1
    1069     6624     6625 1
    1070     2203     2204 1
    1071     1663     1664 1
    1072     2320     2321 1
    1073     2314     2315 1
    1074     1669     1670 1
    1075     9385     9386 1
    1076     5490     5491 1
    1077     8155     8156 1
    1078    11395    11396 1
    1079     8305     8306 1
    1080     2377     2380 1
    1081     3902     3903 1
    1082     5019     5020 1
    1083     5164     5143 1
    1084    11305    11306 1
    1085     3558     3559 1
    1086     4119     4120 1
    1087     5196     5197 1
    1088     4844     4845 1
    1089     6257     6258 1
    1090     5720     5721 1
    1091     6479     6480 1
    1092     4310     4311 1
    1093     6692     6693 1
    1094     3773     3774 1
    1095     4643     4644 1
    1096    12169    12171 1
    1097    13906    13908 1
    1098     1449     1450 1
    1099     1227     1228 1
    1100     3285     3286 1
    1101     2523     2524 1
    1102      375      376 1
    1103     2211     2212 1
    1104     7744     7746 1
    1105     1533     1534 1
    1106     2983     2984 1
    1107     2227     2226 1
    1108      391      390 1
    1109     9805     9806 1
    1110      943      944 1
    1111     4605     4606 1
    1112     3849     3850 1
    1113     2779     2780 1
    1114     5685     5686 1
    1115     6487     6488 1
    1116     9034     9036 1
    1117    13213    13214 1
    1118     5687     5685 1
    1119     9832     9833 1
    1120     9148     9150 1
    1121    12253    12254 1
    1122    12334    12335 1
    1123     8635     8636 1
    1124    12037    12038 1
    1125     8797     8798 1
    1126    13873    13874 1
    1127     9094     9095 1
    1128    14251    14252 1
    1129    14332    14333 1
    1130    14170    14171 1
    1131    11107    11108 1
    1132     2745     2744 1
    1133      326      328 1
    1134     4051     4054 1
    1135      900      902 1
    1136    13315    13316 1
    1137      534      535 1
    1138    13477    13478 1
    1139     8698     8699 1
    1140    14017    14018 1
    1141    13855    13856 1
    1142     8860     8861 1
    1143    10237    10238 1
    1144    10075    10076 1
    1145     6812     6813 1
    1146     6259     6260 1
    1147     4423     4424 1
    1148     4312     4313 1
    1149     6148     6149 1
    1150     3309     3310 1
    1151     1473     1474 1
    1152     6299     6300 1
    1153     4463     4464 1
    1154     5732     5735 1
    1155     5192     5195 1
    1156     3896     3899 1
    1157     6191     6192 1
    1158     4108     4107 1
    1159     7879     7881 1
    1160    12874    12876 1
    1161     8095     8097 1
    1162    13252    13254 1
    1163    11497    11499 1
    1164     7444     7445 1
    1165    12601    12602 1
    1166    10279    10280 1
    1167    14518    14519 1
    1168     9361     9362 1
    1169    12439    12440 1
    1170     8524     8525 1
    1171    11602    11603 1
    1172     1602     1603 1
    1173     4470     4469 1
    1174     3438     3439 1
    1175     5252     5251 1
    1176     1742     1743 1
    1177     7078     7079 1
    1178     1086     1087 1
    1179    11314    11316 1
    1180     2742     2743 1
    1181     2748     2749 1
    1182     2095     2096 1
    1183     1564     1565 1
    1184     9991     9993 1
    1185     4441     4442 1
    1186     1560     1561 1
    1187     2168     2169 1
    1188      332      333 1
    1189    10213    10214 1
    1190     1077     1078 1
    1191     8557     8558 1
    1192     8650     8652 1
    1193     6412     6413 1
    1194     4576     4577 1
    1195     2676     2677 1
    1196      729      730 1
    1197     9862     9864 1
    1198    12820    12822 1
    1199     5364     5363 1
    1200     3059     3060 1
    1201     3528     3527 1
    1202     7426     7428 1
    1203     1037     1038 1
    1204     3305     3306 1
    1205     8914     8916 1
    1206     8938     8940 1
    1207     4402     4403 1
    1208    14536    14537 1
    1209     1710     1712 1
    1210     1062     1064 1
    1211    12076    12077 1
    1212     5373     5374 1
    1213    12445    12446 1
    1214    13084    13086 1
    1215     2466     2468 1
    1216     1027     1030 1
    1217      224      226 1
    1218     8275     8276 1
    1219     7357     7358 1
    1220    11677    11678 1
    1221    11515    11516 1
    1222    10597    10598 1
    1223    14431    14432 1
    1224     6062     6063 1
    1225     7696     7697 1
    1226     4030     4031 1
    1227     5866     5867 1
    1228    12772    12773 1
    1229     4286     4285 1
    1230     6122     6121 1
    1231      733      734 1
    1232      419      420 1
    1233      956      957 1
    1234     1936     1937 1
    1235     8539     8541 1
    1236     9352     9353 1
    1237    12103    12104 1
    1238     4931     4929 1
    1239     3851     3849 1
    1240     2660     2661 1
    1241     1492     1493 1
    1242     3328     3329 1
    1243    11392    11394 1
    1244    10087    10088 1
    1245     7630     7631 1
    1246    12106    12107 1
    1247     6592     6593 1
    1248     4756     4757 1
    1249     3009     3010 1
    1250     1935     1936 1
    1251     1322     1323 1
    1252     2396     2397 1
    1253     3158     3159 1
    1254      449      450 1
    1255     5462     5463 1
    1256      521      522 1
    1257      630      631 1
    1258     5319     5320 1
    1259     6187     6188 1
    1260    11626    11627 1
    1261    11152    11153 1
    1262    10303    10304 1
    1263     9520     9522 1
    1264     5181     5182 1
    1265    11635    11636 1
    1266    13795    13796 1
    1267    11269    11270 1
    1268    13591    13592 1
    1269    10348    10349 1
    1270    10312    10313 1
    1271    10942    10943 1
    1272    12202    12203 1
    1273    11431    11432 1
    1274    13186    13187 1
    1275     4108     4106 1
    1276      634      635 1
    1277      208      209 1
    1278     5523     5524 1
    1279      786      787 1
    1280      558      559 1
    1281     2934     2935 1
    1282     7075     7077 1
    1283     1098     1099 1
    1284     2505     2506 1
    1285     7252     7253 1
    1286    13900    13901 1
    1287      175      174 1
    1288     4595     4596 1
    1289     5495     5496 1
    1290    10651    10652 1
    1291     3659     3660 1
    1292     4532     4533 1
    1293     6243     6242 1
    1294     6555     6554 1
    1295     4407     4406 1
    1296     6444     6443 1
    1297     2941     2942 1
    1298     1759     1760 1
    1299     3367     3368 1
    1300     3259     3260 1
    1301     1423     1424 1
    1302     3052     3053 1
    1303     2322     2321 1
    1304      486      485 1
    1305    13258    13259 1
    1306     2830     2831 1
    1307     3896     3897 1
    1308     2188     2187 1
    1309     3032     3035 1
    1310     1196     1199 1
    1311     2384     2387 1
    1312      548      551 1
    1313    10726    10728 1
    1314     3562     3563 1
    1315    12805    12807 1
    1316     9637     9639 1
    1317    11122    11124 1
    1318     8044     8046 1
    1319    11041    11043 1
    1320     7801     7803 1
    1321    11203    11205 1
    1322     5309     5310 1
    1323     9880     9882 1
    1324     1052     1053 1
    1325    13039    13041 1
    1326    10582    10584 1
    1327     2315     2316 1
    1328      160      161 1
    1329      182      183 1
    1330     1848     1849 1
    1331     3144     3145 1
    1332     2204     2205 1
    1333     1381     1382 1
    1334     2172     2173 1
    1335     1594     1595 1
    1336     2588     2589 1
    1337      752      753 1
    1338     6560     6561 1
    1339    14533    14535 1
    1340    12214    12215 1
    1341    12007    12009 1
    1342     3626     3629 1
    1343    13699    13701 1
    1344     8881     8883 1
    1345     6535     6538 1
    1346     4699     4702 1
    1347     7867     7869 1
    1348    13240    13242 1
    1349    12862    12864 1
    1350     8377     8379 1
    1351     7705     7707 1
    1352     8215     8217 1
    1353    11995    11997 1
    1354     8755     8757 1
    1355    10000    10002 1
    1356    11323    11325 1
    1357     5364     5365 1
    1358     4179     4180 1
    1359     5040     5041 1
    1360     5151     5152 1
    1361     4728     4729 1
    1362     5802     5803 1
    1363     6876     6877 1
    1364     4290     4291 1
    1365     4916     4918 1
    1366     5052     5053 1
    1367     8251     8253 1
    1368    14587    14588 1
    1369     6717     6718 1
    1370    14266    14267 1
    1371     3750     3751 1
    1372    12454    12455 1
    1373     6626     6627 1
    1374     4732     4733 1
    1375     3544     3545 1
    1376    13375    13376 1
    1377    12115    12116 1
    1378     3516     3517 1
    1379     7174     7175 1
    1380     2250     2251 1
    1381     2498     2499 1
    1382      338      339 1
    1383      662      663 1
    1384     4629     4630 1
    1385     1926     1927 1
    1386     5108     5109 1
    1387     6600     6601 1
    1388     4764     4765 1
    1389     6357     6358 1
    1390       45       46 1
    1391     5090     5089 1
    1392     7567     7569 1
    1393     8569     8571 1
    1394    10132    10133 1
    1395     5875     5876 1
    1396     5911     5912 1
    1397    10882    10883 1
    1398     2050     2049 1
    1399     8374     8376 1
    1400    11128    11130 1
    1401     5732     5734 1
    1402    13045    13047 1
    1403    10210    10212 1
    1404     5192     5194 1
    1405     9643     9645 1
    1406    13531    13533 1
    1407     7138     7140 1
    1408     8050     8052 1
    1409     3714     3715 1
    1410     5124     5125 1
    1411     1901     1902 1
    1412     5550     5551 1
    1413    10681    10682 1
    1414    13876    13877 1
    1415     2605     2606 1
    1416     5910     5911 1
    1417      445      446 1
    1418     5013     5014 1
    1419      614      613 1
    1420    10960    10962 1
    1421      725      724 1
    1422    10366    10367 1
    1423     3587     3588 1
    1424     6725     6726 1
    1425     4136     4137 1
    1426     6836     6837 1
    1427     5323     5324 1
    1428     5101     5102 1
    1429     6286     6287 1
    1430     6175     6176 1
    1431     3140     3142 1
    1432     4127     4128 1
    1433     5212     5213 1
    1434     4450     4451 1
    1435     5482     5483 1
    1436     8161     8163 1
    1437     8434     8435 1
    1438     8848     8850 1
    1439    10252    10254 1
    1440     8686     8688 1
    1441    13573    13575 1
    1442    10333    10335 1
    1443    14005    14007 1
    1444    13492    13494 1
    1445     8335     8337 1
    1446    11413    11415 1
    1447    13843    13845 1
    1448    13753    13754 1
    1449     4401     4402 1
    1450     7555     7556 1
    1451     4835     4836 1
    1452     6458     6459 1
    1453     4622     4623 1
    1454     4807     4810 1
    1455     6643     6646 1
    1456    13915    13916 1
    1457     4325     4326 1
    1458     6161     6162 1
    1459     4586     4587 1
    1460     1116     1118 1
    1461     1580     1581 1
    1462     1833     1834 1
    1463     7177     7178 1
    1464    10492    10494 1
    1465     2681     2682 1
    1466     8512     8513 1
    1467    12475    12477 1
    1468    10558    10560 1
    1469     9898     9900 1
    1470     8317     8319 1
    1471    10234    10236 1
    1472    13474    13476 1
    1473     9073     9075 1
    1474     9397     9399 1
    1475    11545    11547 1
    1476    11383    11385 1
    1477     5544     5545 1
    1478     5036     5037 1
    1479     6008     6009 1
    1480     4172     4173 1
    1481     5468     5469 1
    1482     5220     5221 1
    1483     5411     5412 1
    1484    14539    14540 1
    1485     8059     8060 1
    1486     6991     6992 1
    1487     5677     5678 1
    1488     3795     3796 1
    1489     1358     1361 1
    1490     3194     3197 1
    1491     2006     2009 1
    1492     6509     6510 1
    1493    12241    12242 1
    1494      600      601 1
    1495     9214     9215 1
    1496     2436     2437 1
    1497    14401    14402 1
    1498     4150     4151 1
    1499     5986     5987 1
    1500     4912     4913 1
    1501     8479     8480 1
    1502     4709     4710 1
    1503     2695     2694 1
    1504     2842     2821 1
    1505     1983     1984 1
    1506     1128     1129 1
    1507      906      907 1
    1508     6988     6990 1
    1509     1779     1780 1
    1510    11530    11531 1
    1511     1020     1021 1
    1512     2853     2854 1
    1513     2856     2857 1
    1514     3013     3014 1
    1515     1177     1178 1
    1516      859      860 1
    1517     1288     1289 1
    1518      748      749 1
    1519     2584     2585 1
    1520     1209     1208 1
    1521     2669     2670 1
    1522      897      896 1
    1523     3045     3044 1
    1524     1595     1596 1
    1525      703      706 1
    1526      513      512 1
    1527      487      490 1
    1528     2539     2542 1
    1529      806      807 1
    1530     9844     9845 1
    1531    13564    13566 1
    1532    10324    10326 1
    1533     3578     3579 1
    1534    11551    11553 1
    1535     7429     7431 1
    1536     4389     4390 1
    1537     4435     4436 1
    1538    10198    10200 1
    1539     6271     6272 1
    1540    11254    11255 1
    1541     1724     1725 1
    1542     2798     2799 1
    1543     2687     2688 1
    1544     9328     9330 1
    1545    13438    13440 1
    1546     7108     7109 1
    1547      302      303 1
    1548     6614     6615 1
    1549     6230     6231 1
    1550     6767     6768 1
    1551     4730     4731 1
    1552     4394     4395 1
    1553     6566     6567 1
    1554     4931     4932 1
    1555     4391     4392 1
    1556     4894     4873 1
    1557    10576    10578 1
    1558     7645     7646 1
    1559    12883    12884 1
    1560    13153    13154 1
    1561     9850     9851 1
    1562     9958     9959 1
    1563     7771     7772 1
    1564    13198    13199 1
    1565    11173    11174 1
    1566     9796     9797 1
    1567     2279     2280 1
    1568    11443    11444 1
    1569      443      444 1
    1570     8137     8139 1
    1571     4539     4540 1
    1572     8458     8459 1
    1573     5948     5949 1
    1574     1713     1714 1
    1575     3441     3442 1
    1576     1176     1177 1
    1577     3336     3337 1
    1578     3012     3013 1
    1579      963      964 1
    1580    14395    14396 1
    1581    14233    14234 1
    1582     6997     6998 1
    1583     1389     1390 1
    1584    10207    10209 1
    1585     4426     4427 1
    1586     5278     5279 1
    1587     4315     4316 1
    1588     6151     6152 1
    1589     5389     5390 1
    1590     4671     4672 1
    1591     6825     6826 1
    1592     5745     5746 1
    1593     6618     6619 1
    1594     3915     3916 1
    1595      763      764 1
    1596     6848     6849 1
    1597     4475     4476 1
    1598     4989     4990 1
    1599     6842     6843 1
    1600     5006     5007 1
    1601     3095     3093 1
    1602     1259     1257 1
    1603     2217     2218 1
    1604     3879     3880 1
    1605     9493     9495 1
    1606     7225     7227 1
    1607       59       60 1
    1608      816      817 1
    1609     9658     9660 1
    1610     2652     2653 1
    1611     5224     5225 1
    1612     2286     2287 1
    1613     3048     3049 1
    1614    11113    11114 1
    1615      450      451 1
    1616     1155     1156 1
    1617     2028     2029 1
    1618      732      733 1
    1619     1806     1807 1
    1620     1044     1045 1
    1621     2880     2881 1
    1622     1917     1918 1
    1623    13030    13031 1
    1624     5249     5250 1
    1625     5603     5604 1
    1626     3767     3768 1
    1627     7501     7503 1
    1628    14278    14280 1
    1629     9121     9123 1
    1630      176      177 1
    1631     1700     1701 1
    1632       82       83 1
    1633     3409     3410 1
    1634     3698     3699 1
    1635     1573     1574 1
    1636    11209    11211 1
    1637     1494     1496 1
    1638     3330     3332 1
    1639      717      719 1
    1640     5833     5836 1
    1641     3997     4000 1
    1642     6778     6779 1
    1643     1605     1604 1
    1644      578      579 1
    1645     2414     2415 1
    1646     2420     2421 1
    1647     1121     1122 1
    1648     2957     2958 1
    1649    13309    13310 1
    1650    13669    13670 1
    1651    14038    14039 1
    1652      584      585 1
    1653      377      378 1
    1654    14248    14250 1
    1655     2072     2073 1
    1656     2252     2253 1
    1657     2545     2544 1
    1658     6664     6665 1
    1659    13432    13434 1
    1660     5372     5373 1
    1661     3536     3537 1
    1662     6446     6447 1
    1663     4298     4299 1
    1664     6901     6902 1
    1665     6688     6689 1
    1666    12010    12011 1
    1667     6821     6822 1
    1668     7246     7247 1
    1669     8890     8891 1
    1670       90       92 1
    1671    11668    11669 1
    1672     3018     3019 1
    1673     1071     1072 1
    1674      312      313 1
    1675     2730     2731 1
    1676     1182     1183 1
    1677      887      888 1
    1678      461      462 1
    1679     2405     2406 1
    1680     1868     1869 1
    1681       52       53 1
    1682    13264    13265 1
    1683     3367     3366 1
    1684     5322     5323 1
    1685    11182    11183 1
    1686     6734     6735 1
    1687     6746     6747 1
    1688     6533     6534 1
    1689     4910     4911 1
    1690     4697     4698 1
    1691     5984     5985 1
    1692     4148     4149 1
    1693      447      449 1
    1694     7387     7388 1
    1695    14392    14393 1
    1696     1142     1144 1
    1697     1034     1036 1
    1698     2978     2980 1
    1699     9904     9905 1
    1700     7522     7524 1
    1701    13933    13935 1
    1702     9388     9389 1
    1703     3624     3625 1
    1704     5928     5929 1
    1705     5575     5576 1
    1706     3739     3740 1
    1707     7159     7160 1
    1708     5328     5330 1
    1709     7828     7829 1
    1710     8272     8273 1
    1711    10987    10988 1
    1712    12940    12941 1
    1713    13183    13184 1
    1714    11593    11594 1
    1715     7945     7946 1
    1716    10906    10907 1
    1717     8515     8516 1
    1718    12823    12824 1
    1719    13303    13305 1
    1720     2394     2395 1
    1721     3369     3370 1
    1722    14191    14192 1
    1723      570      571 1
    1724     7588     7589 1
    1725     2406     2407 1
    1726     3156     3157 1
    1727     1320     1321 1
    1728      201      200 1
    1729     9568     9569 1
    1730     7420     7421 1
    1731     4418     4419 1
    1732     6791     6792 1
    1733     4967     4968 1
    1734     7678     7680 1
    1735     6254     6255 1
    1736    10543    10544 1
    1737     5084     5086 1
    1738     4955     4956 1
    1739     2401     2402 1
    1740     2623     2624 1
    1741      565      566 1
    1742      676      677 1
    1743    13450    13451 1
    1744     2512     2513 1
    1745    14554    14556 1
    1746    13138    13140 1
    1747    12058    12060 1
    1748    12283    12285 1
    1749     8206     8208 1
    1750    10690    10692 1
    1751     8368     8370 1
    1752     9205     9207 1
    1753    13525    13527 1
    1754    13363    13365 1
    1755     7288     7290 1
    1756    10123    10125 1
    1757    14362    14364 1
    1758       62       65 1
    1759     6697     6700 1
    1760      581      582 1
    1761    13501    13502 1
    1762    10459    10461 1
    1763    13291    13293 1
    1764     3179     3180 1
    1765     8344     8345 1
    1766    11590    11592 1
    1767    11188    11190 1
    1768    10117    10119 1
    1769    11356    11357 1
    1770     7237     7239 1
    1771    11407    11409 1
    1772    10675    10677 1
    1773      638      639 1
    1774     9418     9420 1
    1775    14494    14495 1
    1776    12280    12281 1
    1777    10984    10985 1
    1778    13792    13793 1
    1779    14359    14360 1
    1780     5361     5363 1
    1781     7825     7826 1
    1782    13063    13064 1
    1783    14197    14198 1
    1784     9202     9203 1
    1785    11728    11730 1
    1786     3525     3527 1
    1787     3060     3062 1
    1788     1408     1409 1
    1789     4611     4612 1
    1790     6228     6229 1
    1791     4534     4535 1
    1792     6793     6794 1
    1793      437      438 1
    1794     1949     1950 1
    1795     4957     4958 1
    1796     6370     6371 1
    1797     4722     4723 1
    1798     3029     3030 1
    1799     2273     2274 1
    1800       49       50 1
    1801     6234     6235 1
    1802     6006     6007 1
    1803    13057    13059 1
    1804     8398     8400 1
    1805    12151    12153 1
    1806     4210     4211 1
    1807     4744     4745 1
    1808     4793     4792 1
    1809     5863     5864 1
    1810     4895     4896 1
    1811     6731     6732 1
    1812     7243     7244 1
    1813    13576    13578 1
    1814     8581     8583 1
    1815     8041     8043 1
    1816     8365     8367 1
    1817    11983    11985 1
    1818     9634     9636 1
    1819     8743     8745 1
    1820     8203     8205 1
    1821    11659    11661 1
    1822    13522    13524 1
    1823     5661     5660 1
    1824     3825     3824 1
    1825     6758     6760 1
    1826     2100     2101 1
    1827     2382     2383 1
    1828      113      114 1
    1829     3498     3499 1
    1830     1555     1556 1
    1831      546      547 1
    1832     2706     2707 1
    1833      870      871 1
    1834     4866     4867 1
    1835     8377     8378 1
    1836     5884     5885 1
    1837    11464    11466 1
    1838     8506     8507 1
    1839     6686     6687 1
    1840     4739     4740 1
    1841     3776     3777 1
    1842     5399     5400 1
    1843     5612     5613 1
    1844    14125    14127 1
    1845     8968     8970 1
    1846     7090     7092 1
    1847    11371    11373 1
    1848    12370    12372 1
    1849    13288    13290 1
    1850    13126    13128 1
    1851     6970     6972 1
    1852     6922     6924 1
    1853    10048    10050 1
    1854     6602     6603 1
    1855     9007     9008 1
    1856     4720     4721 1
    1857     3640     3641 1
    1858     4609     4610 1
    1859     4513     4514 1
    1860    14074    14075 1
    1861     8917     8918 1
    1862     1851     1852 1
    1863    10600    10601 1
    1864     9019     9020 1
    1865    14515    14516 1
    1866    12178    12179 1
    1867     4626     4627 1
    1868    12097    12098 1
    1869     9181     9182 1
    1870     7441     7442 1
    1871     7360     7361 1
    1872    12598    12599 1
    1873     1547     1548 1
    1874     6889     6890 1
    1875    13756    13757 1
    1876    12838    12839 1
    1877    11839    11840 1
    1878     9436     9437 1
    1879    13594    13595 1
    1880    10759    10760 1
    1881     9598     9599 1
    1882     7681     7682 1
    1883     7519     7520 1
    1884     8437     8438 1
    1885    11836    11837 1
    1886    10711    10713 1
    1887     7471     7473 1
    1888    10873    10875 1
    1889     9550     9552 1
    1890    14545    14547 1
    1891     9307     9309 1
    1892    12709    12711 1
    1893     1544     1545 1
    1894    12628    12630 1
    1895    13924    13925 1
    1896     3302     3303 1
    1897     8173     8175 1
    1898     9526     9527 1
    1899    12874    12875 1
    1900     4224     4223 1
    1901       75       76 1
    1902     9259     9261 1
    1903     6441     6443 1
    1904    13645    13646 1
    1905     9619     9620 1
    1906     2043     2044 1
    1907       26       27 1
    1908      169      168 1
    1909    13231    13232 1
    1910     8194     8195 1
    1911      328      329 1
    1912    10909    10911 1
    1913     2465     2466 1
    1914     5132     5134 1
    1915    12994    12996 1
    1916    10486    10488 1
    1917    10105    10106 1
    1918     3591     3592 1
    1919     5427     5428 1
    1920     1254     1255 1
    1921     3090     3091 1
    1922      688      689 1
    1923     3184     3185 1
    1924     3391     3392 1
    1925     3589     3590 1
    1926     1237     1238 1
    1927     2635     2636 1
    1928     1444     1445 1
    1929     1348     1349 1
    1930    10411    10412 1
    1931     8320     8322 1
    1932     5937     5938 1
    1933     7135     7136 1
    1934     6252     6253 1
    1935     6060     6061 1
    1936      240      241 1
    1937    10741    10742 1
    1938     4850     4851 1
    1939     3887     3888 1
    1940     4961     4962 1
    1941    10591    10593 1
    1942     1773     1774 1
    1943      192      193 1
    1944     1995     1996 1
    1945     1659     1660 1
    1946     1884     1885 1
    1947      650      652 1
    1948     1770     1771 1
    1949     5377     5378 1
    1950     2885     2886 1
    1951      430      431 1
    1952      105      106 1
    1953     2374     2375 1
    1954     5932     5933 1
    1955     1612     1613 1
    1956      538      539 1
    1957      742      743 1
    1958     8566     8568 1
    1959     3448     3449 1
    1960     2083     2084 1
    1961     1364     1365 1
    1962     2952     2953 1
    1963     2769     2771 1
    1964      933      935 1
    1965     8425     8426 1
    1966     7396     7397 1
    1967     2995     2996 1
    1968     3741     3742 1
    1969       81       82 1
    1970     2785     2786 1
    1971     2023     2024 1
    1972     4929     4930 1
    1973     2029     2030 1
    1974     1699     1700 1
    1975     3787     3788 1
    1976     5577     5578 1
    1977    12811    12813 1
    1978    12757    12758 1
    1979     7036     7037 1
    1980    11017    11019 1
    1981     9475     9477 1
    1982     5434     5413 1
    1983     9751     9752 1
    1984     5462     5465 1
    1985     1889     1888 1
    1986    11770    11772 1
    1987     5382     5383 1
    1988     3794     3795 1
    1989     4766     4767 1
    1990     4540     4541 1
    1991     7093     7094 1
    1992    10291    10292 1
    1993     6973     6974 1
    1994    11614    11615 1
    1995    12613    12614 1
    1996    14530    14531 1
    1997     9373     9374 1
    1998    12451    12452 1
    1999     7456     7457 1
    2000     8536     8537 1
    2001      652      653 1
    2002     6214     6215 1
    2003     2381     2382 1
    2004      545      546 1
    2005    11869    11871 1
    2006     5345     5346 1
    2007     6632     6633 1
    2008    11782    11783 1
    2009     4796     4797 1
    2010     4976     4979 1
    2011     9487     9488 1
    2012    11227    11229 1
    2013     7987     7989 1
    2014    14143    14145 1
    2015    12226    12228 1
    2016    13981    13983 1
    2017     8740     8741 1
    2018    12331    12332 1
    2019     5812     5791 1
    2020    14167    14168 1
    2021    11899    11900 1
    2022    14329    14330 1
    2023    12250    12251 1
    2024    10495    10496 1
    2025      414      415 1
    2026     2930     2931 1
    2027     7030     7031 1
    2028     1634     1635 1
    2029      846      847 1
    2030     4854     4855 1
    2031     5817     5818 1
    2032     4650     4651 1
    2033     9640     9642 1
    2034    12895    12897 1
    2035     4521     4522 1
    2036      975      976 1
    2037     2811     2812 1
    2038    11863    11865 1
    2039     2276     2277 1
    2040      440      441 1
    2041    11239    11241 1
    2042    12175    12176 1
    2043     8674     8675 1
    2044    12466    12468 1
    2045     3312     3313 1
    2046     1056     1057 1
    2047     1476     1477 1
    2048      945      946 1
    2049     2781     2782 1
    2050     2892     2893 1
    2051     6378     6377 1
    2052    12745    12747 1
    2053    12112    12114 1
    2054     6849     6850 1
    2055     3603     3604 1
    2056     6627     6628 1
    2057     4902     4903 1
    2058     5127     5128 1
    2059     6738     6739 1
    2060     5439     5440 1
    2061     5091     5093 1
    2062    14434    14436 1
    2063     7708     7710 1
    2064     1703     1702 1
    2065       85       84 1
    2066     4288     4289 1
    2067     5510     5512 1
    2068    11890    11891 1
    2069     4775     4776 1
    2070     4349     4350 1
    2071     5861     5862 1
    2072     8020     8021 1
    2073    13165    13166 1
    2074     9925     9926 1
    2075     1628     1630 1
    2076    10369    10370 1
    2077     8116     8117 1
    2078    11692    11693 1
    2079     8290     8291 1
    2080    10195    10196 1
    2081    13435    13436 1
    2082     8005     8006 1
    2083    10084    10085 1
    2084     8167     8168 1
    2085    13243    13244 1
    2086    11488    11489 1
    2087     2954     2955 1
    2088    11326    11327 1
    2089    10003    10004 1
    2090     3706     3707 1
    2091    10567    10569 1
    2092     1118     1119 1
    2093      917      918 1
    2094     2693     2694 1
    2095      857      858 1
    2096     1619     1620 1
    2097     3455     3456 1
    2098    11422    11424 1
    2099     6344     6345 1
    2100     4397     4398 1
    2101     6557     6558 1
    2102     1079     1080 1
    2103     5526     5525 1
    2104     4992     4991 1
    2105     5325     5324 1
    2106     6828     6827 1
    2107     4244     4245 1
    2108    10834    10835 1
    2109     2324     2326 1
    2110    11992    11993 1
    2111    10120    10121 1
    2112    11659    11660 1
    2113      347      348 1
    2114     1970     1971 1
    2115     8347     8348 1
    2116     7057     7058 1
    2117     5354     5355 1
    2118     4166     4167 1
    2119     9778     9779 1
    2120     5342     5343 1
    2121     6854     6855 1
    2122     5768     5769 1
    2123     3719     3720 1
    2124     5300     5302 1
    2125    13630    13631 1
    2126    11389    11390 1
    2127     8149     8150 1
    2128       36       37 1
    2129     8080     8081 1
    2130    11023    11024 1
    2131    11620    11621 1
    2132    11158    11159 1
    2133    11320    11321 1
    2134     8677     8678 1
    2135     7702     7703 1
    2136    13699    13700 1
    2137     8299     8300 1
    2138    10216    10217 1
    2139     4875     4876 1
    2140     4273     4274 1
    2141     6711     6712 1
    2142     6109     6110 1
    2143     2403     2404 1
    2144     2478     2479 1
    2145    12739    12740 1
    2146     7582     7583 1
    2147     6545     6546 1
    2148     6788     6789 1
    2149     7222     7223 1
    2150     6038     6039 1
    2151      108      107 1
    2152    10114    10115 1
    2153     6478     6477 1
    2154     4642     4641 1
    2155     2168     2171 1
    2156      332      335 1
    2157     5926     5927 1
    2158     1840     1837 1
    2159    11215    11217 1
    2160     2345     2346 1
    2161      509      510 1
    2162     5691     5692 1
    2163     1047     1046 1
    2164     2883     2882 1
    2165     5624     5625 1
    2166     6786     6788 1
    2167     7504     7506 1
    2168    11161    11163 1
    2169     7801     7802 1
    2170     3313     3314 1
    2171     1654     1655 1
    2172    14356    14358 1
    2173      962      963 1
    2174     2821     2820 1
    2175     2036     2037 1
    2176     5255     5256 1
    2177     6890     6891 1
    2178     4292     4293 1
    2179     5054     5055 1
    2180     1924     1925 1
    2181     3220     3221 1
    2182     1384     1385 1
    2183    11284    11286 1
    2184     8242     8244 1
    2185    10135    10137 1
    2186    11026    11027 1
    2187    11971    11973 1
    2188     8731     8733 1
    2189    14074    14076 1
    2190    12886    12888 1
    2191    13237    13239 1
    2192    10972    10974 1
    2193     9298     9300 1
    2194     8728     8730 1
    2195    10969    10971 1
    2196    12319    12321 1
    2197     2972     2974 1
    2198     7285     7286 1
    2199      197      196 1
    2200     9337     9338 1
    2201    11500    11502 1
    2202     1108     1107 1
    2203     4884     4885 1
    2204     4710     4711 1
    2205    12991    12993 1
    2206     4583     4584 1
    2207     5885     5886 1
    2208     3761     3762 1
    2209     6579     6578 1
    2210     5597     5598 1
    2211     4743     4742 1
    2212      484      485 1
    2213      622      623 1
    2214    11560    11561 1
    2215     3457     3460 1
    2216     2001     2002 1
    2217     6439     6440 1
    2218     4279     4280 1
    2219     6223     6224 1
    2220      164      166 1
    2221     5082     5083 1
    2222    11395    11397 1
    2223    13462    13464 1
    2224     8155     8157 1
    2225     8305     8307 1
    2226     7195     7196 1
    2227     6955     6956 1
    2228     6865     6866 1
    2229     6732     6734 1
    2230    11995    11996 1
    2231     5611     5612 1
    2232     6394     6395 1
    2233     7480     7481 1
    2234    12637    12638 1
    2235    13975    13976 1
    2236     8818     8819 1
    2237     9022     9024 1
    2238     7186     7188 1
    2239    12100    12102 1
    2240    11884    11886 1
    2241     3382     3361 1
    2242    10399    10401 1
    2243     4976     4978 1
    2244     8482     8484 1
    2245     9184     9186 1
    2246    13639    13641 1
    2247        5        6 1
    2248     6855     6856 1
    2249     5331     5332 1
    2250     6883     6884 1
    2251     4936     4937 1
    2252     4510     4511 1
    2253     6346     6347 1
    2254     4399     4400 1
    2255     3920     3921 1
    2256     1527     1528 1
    2257     2113     2114 1
    2258     1602     1604 1
    2259     5971     5972 1
    2260     3363     3364 1
    2261     4024     4025 1
    2262     3438     3440 1
    2263     4343     4344 1
    2264     6721     6722 1
    2265     8200     8201 1
    2266     5860     5861 1
    2267     4774     4775 1
    2268     5941     5944 1
    2269     5920     5899 1
    2270    13399    13401 1
    2271     7864     7865 1
    2272    13654    13655 1
    2273     5241     5242 1
    2274     9790     9792 1
    2275     6014     6015 1
    2276     6125     6126 1
    2277     5326     5305 1
    2278     6833     6834 1
    2279     6030     6031 1
    2280     4448     4449 1
    2281    13294    13295 1
    2282     9832     9834 1
    2283     5189     5190 1
    2284      468      470 1
    2285     1065     1066 1
    2286    14188    14189 1
    2287    11800    11801 1
    2288     3838     3839 1
    2289    12064    12065 1
    2290     6069     6070 1
    2291     5170     5171 1
    2292       12       13 1
    2293    10189    10190 1
    2294    13429    13430 1
    2295     6136     6137 1
    2296     3462     3461 1
    2297    12703    12704 1
    2298     5226     5225 1
    2299     4063     4064 1
    2300     5899     5900 1
    2301     2743     2744 1
    2302     5305     5306 1
    2303     6061     6062 1
    2304     5939     5940 1
    2305     4919     4920 1
    2306    11119    11121 1
    2307     2257     2258 1
    2308      421      422 1
    2309     9967     9968 1
    2310     1269     1268 1
    2311     5617     5620 1
    2312     6049     6052 1
    2313     4213     4216 1
    2314     1772     1773 1
    2315     3185     3186 1
    2316     1010     1011 1
    2317    12997    12999 1
    2318     2846     2847 1
    2319     9217     9219 1
    2320     9952     9953 1
    2321     5037     5038 1
    2322    13054    13056 1
    2323    12772    12774 1
    2324     1571     1572 1
    2325     3407     3408 1
    2326     7753     7754 1
    2327     6488     6489 1
    2328     2896     2897 1
    2329     8230     8232 1
    2330     3785     3784 1
    2331     3916     3917 1
    2332     4565     4566 1
    2333    12529    12530 1
    2334     7324     7326 1
    2335    12481    12483 1
    2336    11647    11648 1
    2337     7291     7292 1
    2338    10696    10697 1
    2339     1008     1009 1
    2340    14368    14369 1
    2341      560      561 1
    2342     3269     3270 1
    2343    12289    12290 1
    2344     9211     9212 1
    2345    12127    12128 1
    2346    14206    14207 1
    2347    14044    14045 1
    2348    10087    10089 1
    2349    13147    13148 1
    2350     2769     2770 1
    2351      933      934 1
    2352     2661     2662 1
    2353      223      224 1
    2354     2707     2708 1
    2355      871      872 1
    2356      583      584 1
    2357     2308     2309 1
    2358     3923     3924 1
    2359     5759     5760 1
    2360    14047    14048 1
    2361    13762    13763 1
    2362    11440    11441 1
    2363     9037     9038 1
    2364     4948     4927 1
    2365    12844    12845 1
    2366     9442     9443 1
    2367    13195    13196 1
    2368     9955     9956 1
    2369     2325     2326 1
    2370    13600    13601 1
    2371    11626    11628 1
    2372    11152    11154 1
    2373    10303    10305 1
    2374     8998     9000 1
    2375    12781    12783 1
    2376    10819    10821 1
    2377     6202     6203 1
    2378      669      670 1
    2379     3318     3319 1
    2380     2244     2245 1
    2381      408      409 1
    2382     1482     1483 1
    2383      837      838 1
    2384     2673     2674 1
    2385     1911     1912 1
    2386     3207     3208 1
    2387     1260     1261 1
    2388      679      680 1
    2389     3560     3561 1
    2390    14035    14037 1
    2391    12661    12662 1
    2392     1115     1116 1
    2393     7252     7254 1
    2394     6433     6434 1
    2395     4551     4552 1
    2396     6482     6484 1
    2397    12238    12239 1
    2398     1926     1928 1
    2399     1311     1312 1
    2400     2250     2252 1
    2401     1357     1358 1
    2402     3193     3194 1
    2403    13258    13260 1
    2404     6056     6057 1
    2405     3896     3898 1
    2406     8212     8214 1
    2407     3147     3148 1
    2408    14299    14300 1
    2409     3403     3406 1
    2410     2087     2088 1
    2411     4861     4864 1
    2412    14107    14108 1
    2413     8950     8951 1
    2414    13270    13271 1
    2415    10030    10031 1
    2416    12352    12353 1
    2417     7507     7508 1
    2418     7951     7952 1
    2419     9430     9432 1
    2420     7534     7535 1
    2421     8845     8846 1
    2422     2086     2087 1
    2423     2125     2126 1
    2424     3421     3422 1
    2425     2998     2999 1
    2426     1051     1052 1
    2427     2984     2985 1
    2428     3227     3228 1
    2429     2915     2916 1
    2430     2153     2154 1
    2431      317      318 1
    2432     7498     7499 1
    2433     3116     3117 1
    2434    14101    14102 1
    2435    12430    12431 1
    2436     3490     3491 1
    2437     4771     4772 1
    2438    13390    13392 1
    2439     9325     9326 1
    2440     5837     5838 1
    2441     4220     4222 1
    2442     1980     1982 1
    2443     1967     1968 1
    2444     2840     2841 1
    2445      356      357 1
    2446      893      894 1
    2447     6878     6877 1
    2448     7642     7643 1
    2449    11509    11510 1
    2450     5850     5851 1
    2451    13246    13248 1
    2452    13528    13530 1
    2453    11989    11991 1
    2454     8749     8751 1
    2455     8209     8211 1
    2456     8371     8373 1
    2457    10951    10953 1
    2458    12868    12870 1
    2459     8089     8091 1
    2460     4040     4041 1
    2461    10732    10734 1
    2462    10654    10655 1
    2463    12091    12093 1
    2464     3086     3088 1
    2465     1250     1252 1
    2466     5067     5068 1
    2467     6258     6259 1
    2468     6795     6796 1
    2469     4311     4312 1
    2470     8026     8027 1
    2471     8188     8189 1
    2472    10375    10376 1
    2473    14065    14066 1
    2474     8908     8909 1
    2475    13159    13160 1
    2476    11536    11537 1
    2477     8395     8396 1
    2478    12310    12311 1
    2479    12148    12149 1
    2480      543      544 1
    2481    11677    11679 1
    2482    14431    14433 1
    2483     7357     7359 1
    2484    11515    11517 1
    2485    10597    10599 1
    2486      204      205 1
    2487     4798     4799 1
    2488     6634     6635 1
    2489     1971     1972 1
    2490     8275     8277 1
    2491     2727     2728 1
    2492    12367    12368 1
    2493     9661     9662 1
    2494    13738    13739 1
    2495     9247     9248 1
    2496    10201    10203 1
    2497    12769    12770 1
    2498     7612     7613 1
    2499    10852    10853 1
    2500     2296     2297 1
    2501     1975     1976 1
    2502     1108     1109 1
    2503     1753     1754 1
    2504      571      572 1
    2505     2407     2408 1
    2506     2944     2945 1
    2507      997      998 1
    2508    10882    10884 1
    2509     3566     3568 1
    2510     5402     5404 1
    2511     6287     6288 1
    2512      842      843 1
    2513     4617     4618 1
    2514     4451     4452 1
    2515    10681    10683 1
    2516     8926     8928 1
    2517     2121     2123 1
    2518     5741     5742 1
    2519    11779    11781 1
    2520     9676     9678 1
    2521    11308    11310 1
    2522      511      512 1
    2523     1585     1586 1
    2524     2458     2459 1
    2525     4715     4716 1
    2526     6662     6663 1
    2527     6350     6351 1
    2528     6551     6552 1
    2529    14182    14184 1
    2530     7273     7275 1
    2531     8758     8760 1
    2532     8368     8369 1
    2533     3083     3084 1
    2534    13525    13526 1
    2535     1247     1248 1
    2536    12160    12162 1
    2537     7663     7665 1
    2538     3068     3067 1
    2539     1232     1231 1
    2540     5563     5566 1
    2541     9406     9408 1
    2542    11431    11433 1
    2543    11269    11271 1
    2544     9946     9948 1
    2545    13588    13590 1
    2546    10942    10944 1
    2547    13186    13188 1
    2548     5512     5513 1
    2549     8431     8433 1
    2550    11836    11838 1
    2551    13591    13593 1
    2552    10579    10580 1
    2553    12118    12119 1
    2554     3620     3622 1
    2555      238      237 1
    2556     4361     4362 1
    2557     9232     9234 1
    2558    13804    13805 1
    2559    14305    14307 1
    2560     7474     7476 1
    2561    12793    12795 1
    2562    10714    10716 1
    2563    11875    11877 1
    2564    10390    10392 1
    2565     8473     8475 1
    2566     9553     9555 1
    2567    14548    14550 1
    2568    10876    10878 1
    2569     8392     8394 1
    2570     4857     4858 1
    2571     3504     3505 1
    2572      639      640 1
    2573     3703     3704 1
    2574     6613     6614 1
    2575     2896     2875 1
    2576     1060     1039 1
    2577    10348    10350 1
    2578    11311    11312 1
    2579     3711     3712 1
    2580     5547     5548 1
    2581     4359     4360 1
    2582     9115     9116 1
    2583     3936     3937 1
    2584     5907     5908 1
    2585     4047     4048 1
    2586     6495     6497 1
    2587     4659     4661 1
    2588     4177     4178 1
    2589      166      167 1
    2590    10972    10973 1
    2591     3323     3324 1
    2592     3911     3912 1
    2593     3434     3435 1
    2594     3311     3312 1
    2595     2774     2775 1
    2596     8614     8615 1
    2597    10261    10262 1
    2598     6818     6819 1
    2599     8452     8453 1
    2600    11854    11855 1
    2601    10924    10925 1
    2602     2127     2126 1
    2603    13003    13004 1
    2604    11422    11423 1
    2605     7954     7955 1
    2606    11974    11975 1
    2607    13486    13487 1
    2608    11893    11894 1
    2609    13648    13649 1
    2610     8572     8573 1
    2611    10246    10247 1
    2612    13567    13568 1
    2613     8329     8330 1
    2614     8218     8220 1
    2615    11650    11651 1
    2616     1235     1236 1
    2617     3182     3183 1
    2618     1721     1722 1
    2619     5025     5026 1
    2620     6861     6862 1
    2621     9844     9846 1
    2622     4175     4176 1
    2623     5810     5811 1
    2624    10351    10352 1
    2625     9583     9584 1
    2626     1276     1277 1
    2627     1199     1200 1
    2628     7666     7668 1
    2629    12778    12779 1
    2630     7645     7647 1
    2631    12883    12885 1
    2632    13153    13155 1
    2633    14503    14504 1
    2634     7183     7185 1
    2635     8140     8142 1
    2636     1287     1288 1
    2637    10963    10964 1
    2638     1709     1710 1
    2639     9133     9135 1
    2640     8296     8297 1
    2641    14149    14151 1
    2642    10708    10710 1
    2643     7468     7470 1
    2644    10897    10899 1
    2645     8830     8832 1
    2646    11233    11235 1
    2647    13624    13626 1
    2648    10870    10872 1
    2649    11707    11709 1
    2650     9547     9549 1
    2651     3593     3594 1
    2652    12478    12479 1
    2653      376      377 1
    2654     4868     4869 1
    2655     6894     6895 1
    2656    13387    13388 1
    2657    11857    11858 1
    2658     4732     4711 1
    2659    10147    10148 1
    2660     7897     7898 1
    2661     3882     3883 1
    2662     5829     5830 1
    2663     5280     5281 1
    2664     2487     2488 1
    2665     1191     1192 1
    2666    12292    12293 1
    2667     4827     4828 1
    2668     1078     1079 1
    2669     1980     1981 1
    2670     4690     4691 1
    2671     3616     3617 1
    2672     5446     5447 1
    2673     5764     5765 1
    2674     6526     6527 1
    2675     5452     5453 1
    2676     6208     6209 1
    2677     7948     7949 1
    2678     4487     4488 1
    2679    11113    11115 1
    2680    13030    13032 1
    2681     9886     9887 1
    2682    12676    12677 1
    2683       76       77 1
    2684      944      945 1
    2685     2780     2781 1
    2686     9835     9836 1
    2687     4950     4952 1
    2688    13912    13914 1
    2689    13426    13428 1
    2690    14470    14471 1
    2691     5588     5587 1
    2692     6117     6118 1
    2693     4867     4868 1
    2694     4821     4822 1
    2695     8866     8867 1
    2696      111      112 1
    2697     2051     2052 1
    2698    12589    12590 1
    2699    10498    10499 1
    2700     5866     5845 1
    2701     4030     4009 1
    2702     4166     4169 1
    2703     5354     5357 1
    2704      171      170 1
    2705    12727    12729 1
    2706     9508     9509 1
    2707    12910    12911 1
    2708    11074    11075 1
    2709     9670     9671 1
    2710     2151     2152 1
    2711      528      529 1
    2712    12748    12749 1
    2713    10831    10832 1
    2714    10669    10670 1
    2715     7591     7592 1
    2716     2936     2937 1
    2717      569      570 1
    2718      680      681 1
    2719     1642     1641 1
    2720      393      394 1
    2721    11668    11670 1
    2722      190      191 1
    2723     3599     3600 1
    2724     4584     4585 1
    2725    14140    14141 1
    2726     8551     8552 1
    2727     8983     8984 1
    2728     8821     8822 1
    2729    13978    13979 1
    2730    12223    12224 1
    2731    12061    12062 1
    2732     6871     6872 1
    2733     7387     7389 1
    2734    14392    14394 1
    2735       56       58 1
    2736     1304     1305 1
    2737     9388     9390 1
    2738     2613     2614 1
    2739     3375     3376 1
    2740    10168    10169 1
    2741     6430     6427 1
    2742     2784     2785 1
    2743     2022     2023 1
    2744     3096     3097 1
    2745      297      298 1
    2746      948      949 1
    2747     2133     2134 1
    2748     1371     1372 1
    2749    11287    11288 1
    2750     6794     6795 1
    2751    13540    13541 1
    2752    13672    13674 1
    2753     7588     7590 1
    2754    14191    14193 1
    2755     4257     4258 1
    2756     5448     5449 1
    2757     6411     6412 1
    2758     5982     5983 1
    2759     4575     4576 1
    2760     5871     5872 1
    2761     6099     6100 1
    2762     4686     4687 1
    2763     6093     6094 1
    2764     6522     6523 1
    2765     6976     6978 1
    2766     5047     5048 1
    2767     4682     4680 1
    2768     4393     4394 1
    2769     8836     8837 1
    2770     1922     1923 1
    2771     6268     6265 1
    2772     8989     8991 1
    2773    13450    13452 1
    2774    12520    12521 1
    2775     3105     3104 1
    2776      764      766 1
    2777     7318     7319 1
    2778    13312    13313 1
    2779     4291     4292 1
    2780    12298    12299 1
    2781    12136    12137 1
    2782     8896     8897 1
    2783    14053    14054 1
    2784     9613     9614 1
    2785     3509     3510 1
    2786     7489     7491 1
    2787     2474     2475 1
    2788     7849     7850 1
    2789    11356    11358 1
    2790    13501    13503 1
    2791    11854    11856 1
    2792      815      816 1
    2793     5481     5482 1
    2794     2651     2652 1
    2795     3645     3646 1
    2796     3991     3992 1
    2797     1173     1174 1
    2798      983      984 1
    2799       69       70 1
    2800      115      116 1
    2801     5706     5707 1
    2802    12913    12914 1
    2803    14023    14024 1
    2804     2367     2368 1
    2805     1722     1723 1
    2806     3164     3165 1
    2807     1646     1647 1
    2808    11029    11030 1
    2809     3734     3735 1
    2810     5570     5571 1
    2811     4918     4919 1
    2812     6754     6755 1
    2813     7081     7082 1
    2814     1601     1602 1
    2815     3437     3438 1
    2816    13135    13136 1
    2817    12916    12917 1
    2818    12229    12230 1
    2819     2010     2011 1
    2820     6095     6094 1
    2821     4259     4258 1
    2822     7411     7413 1
    2823    13714    13716 1
    2824    13894    13895 1
    2825    10630    10631 1
    2826     9496     9497 1
    2827     3523     3524 1
    2828     5359     5360 1
    2829     5112     5114 1
    2830    14497    14498 1
    2831     7774     7775 1
    2832    12580    12581 1
    2833     5246     5248 1
    2834     9340     9341 1
    2835     7855     7856 1
    2836    13012    13013 1
    2837    11176    11177 1
    2838     5220     5222 1
    2839    10933    10934 1
    2840     2163     2164 1
    2841     6001     6002 1
    2842     5955     5956 1
    2843     4337     4338 1
    2844      640      641 1
    2845      205      206 1
    2846     1110     1111 1
    2847     2946     2947 1
    2848     1647     1648 1
    2849     2184     2185 1
    2850    12664    12665 1
    2851    10471    10472 1
    2852     4745     4746 1
    2853    10447    10448 1
    2854     3046     3047 1
    2855     2617     2618 1
    2856      781      782 1
    2857     7138     7139 1
    2858     1210     1211 1
    2859     8506     8508 1
    2860     8824     8826 1
    2861      352      351 1
    2862     2276     2279 1
    2863      440      443 1
    2864    10888    10890 1
    2865     1903     1902 1
    2866     9007     9009 1
    2867     1127     1128 1
    2868    13129    13131 1
    2869     4397     4396 1
    2870     6233     6232 1
    2871     3382     3383 1
    2872    11302    11304 1
    2873      229      228 1
    2874     8812     8813 1
    2875    13924    13926 1
    2876     2711     2712 1
    2877     5145     5147 1
    2878     9838     9839 1
    2879    13183    13185 1
    2880     7945     7947 1
    2881    10351    10353 1
    2882    10270    10272 1
    2883       15       17 1
    2884     8272     8274 1
    2885    11593    11595 1
    2886    12940    12942 1
    2887    10903    10904 1
    2888    11674    11676 1
    2889     7258     7259 1
    2890    12577    12578 1
    2891     3639     3640 1
    2892     6012     6013 1
    2893     5697     5698 1
    2894     6123     6124 1
    2895     4287     4288 1
    2896     5475     5476 1
    2897     8083     8085 1
    2898    13372    13374 1
    2899     9106     9107 1
    2900     5094     5095 1
    2901     6546     6547 1
    2902     4949     4950 1
    2903     3545     3546 1
    2904     1373     1374 1
    2905      694      695 1
    2906     2530     2531 1
    2907     4028     4029 1
    2908     6596     6597 1
    2909    14032    14033 1
    2910    12253    12255 1
    2911    11794    11796 1
    2912    10411    10413 1
    2913     1561     1562 1
    2914    13633    13634 1
    2915     3095     3096 1
    2916     1814     1815 1
    2917     5332     5333 1
    2918     3261     3262 1
    2919     2940     2941 1
    2920     3051     3052 1
    2921     1314     1315 1
    2922     1425     1426 1
    2923     4055     4056 1
    2924      628      607 1
    2925     6896     6897 1
    2926     6035     6036 1
    2927     3473     3474 1
    2928    12220    12221 1
    2929     2518     2497 1
    2930     9922     9924 1
    2931     4086     4087 1
    2932     4800     4801 1
    2933     1145     1146 1
    2934    12421    12422 1
    2935     6636     6637 1
    2936     2981     2982 1
    2937     2713     2714 1
    2938      173      170 1
    2939     2437     2438 1
    2940    12877    12879 1
    2941       35       36 1
    2942      414      416 1
    2943      846      848 1
    2944     2983     2982 1
    2945     4945     4946 1
    2946    10054    10056 1
    2947    11401    11403 1
    2948     8038     8040 1
    2949    11143    11145 1
    2950    11305    11307 1
    2951     9631     9633 1
    2952    11386    11388 1
    2953     7795     7797 1
    2954    11035    11037 1
    2955    11548    11550 1
    2956     1682     1683 1
    2957    10144    10146 1
    2958    14275    14276 1
    2959    13324    13325 1
    2960     3454     3455 1
    2961     8425     8427 1
    2962     6925     6926 1
    2963     2171     2172 1
    2964      335      336 1
    2965     2927     2928 1
    2966     9457     9458 1
    2967     9751     9753 1
    2968    10159    10160 1
    2969     6949     6950 1
    2970    12313    12314 1
    2971     2272     2271 1
    2972      436      435 1
    2973     9466     9467 1
    2974     1516     1515 1
    2975     4378     4379 1
    2976     1925     1926 1
    2977     9856     9858 1
    2978     9694     9696 1
    2979    11761    11763 1
    2980    13678    13680 1
    2981     7777     7779 1
    2982     4881     4882 1
    2983    11923    11925 1
    2984    10438    10440 1
    2985    11179    11181 1
    2986     6568     6569 1
    2987      771      773 1
    2988     4272     4273 1
    2989     6108     6109 1
    2990    12622    12623 1
    2991     4803     4802 1
    2992     7048     7049 1
    2993     7168     7169 1
    2994     3733     3734 1
    2995     5197     5198 1
    2996     5569     5570 1
    2997     2438     2441 1
    2998      602      605 1
    2999     1466     1469 1
    3000    14158    14159 1
    3001      633      634 1
    3002    12838    12840 1
    3003    11839    11841 1
    3004    13756    13758 1
    3005     9598     9600 1
    3006     9436     9438 1
    3007    13594    13596 1
    3008    10759    10761 1
    3009     7681     7683 1
    3010     8437     8439 1
    3011      500      501 1
    3012     7132     7134 1
    3013     2532     2533 1
    3014     2643     2644 1
    3015     3069     3070 1
    3016     1233     1234 1
    3017      696      697 1
    3018     3180     3181 1
    3019      553      554 1
    3020     3019     3020 1
    3021     1072     1073 1
    3022     1183     1184 1
    3023      310      311 1
    3024      961      962 1
    3025     2800     2801 1
    3026     1919     1920 1
    3027      342      341 1
    3028     1726     1727 1
    3029     9484     9486 1
    3030     3674     3676 1
    3031    13930    13932 1
    3032      590      591 1
    3033    11662    11664 1
    3034     9808     9810 1
    3035     5414     5415 1
    3036     9070     9071 1
    3037     9265     9267 1
    3038     3679     3680 1
    3039     5469     5470 1
    3040     1331     1330 1
    3041      863      864 1
    3042    10570    10572 1
    3043     7957     7958 1
    3044     5480     5481 1
    3045     6236     6237 1
    3046     4400     4401 1
    3047     3644     3645 1
    3048     1139     1140 1
    3049     3598     3577 1
    3050     5103     5102 1
    3051     5214     5213 1
    3052     3783     3784 1
    3053    12247    12248 1
    3054     9208     9209 1
    3055     1298     1300 1
    3056    11377    11379 1
    3057    14365    14366 1
    3058     4091     4092 1
    3059    11806    11807 1
    3060    10885    10886 1
    3061    12640    12641 1
    3062    10723    10724 1
    3063    12802    12803 1
    3064     9562     9563 1
    3065     7483     7484 1
    3066    14557    14558 1
    3067     1148     1149 1
    3068     9319     9320 1
    3069     1688     1689 1
    3070     2096     2097 1
    3071     1085     1086 1
    3072     1517     1518 1
    3073     3353     3354 1
    3074     3093     3094 1
    3075     1257     1258 1
    3076     2339     2337 1
    3077      503      501 1
    3078     5300     5303 1
    3079    10552    10554 1
    3080    13819    13821 1
    3081     8311     8313 1
    3082    10066    10068 1
    3083    12469    12471 1
    3084    13306    13308 1
    3085    13468    13470 1
    3086    10417    10419 1
    3087    11740    11742 1
    3088    11578    11580 1
    3089     1941     1942 1
    3090      852      853 1
    3091     4635     4636 1
    3092     6471     6472 1
    3093     3873     3874 1
    3094     9568     9570 1
    3095    10891    10893 1
    3096    14317    14319 1
    3097     6310     6311 1
    3098       83       84 1
    3099     1701     1702 1
    3100     2127     2128 1
    3101      291      292 1
    3102     2016     2017 1
    3103     2238     2239 1
    3104     1223     1224 1
    3105     2627     2628 1
    3106      791      792 1
    3107     5214     5215 1
    3108      662      661 1
    3109     4531     4530 1
    3110     1376     1377 1
    3111     1141     1142 1
    3112     2931     2932 1
    3113     3212     3213 1
    3114     2450     2451 1
    3115     5633     5634 1
    3116     4559     4560 1
    3117     2323     2326 1
    3118     3905     3906 1
    3119     5852     5853 1
    3120    11545    11546 1
    3121    10114    10116 1
    3122    11791    11792 1
    3123     4504     4505 1
    3124     1670     1671 1
    3125      902      903 1
    3126     2426     2427 1
    3127     6082     6083 1
    3128     4246     4247 1
    3129    11350    11351 1
    3130     1153     1154 1
    3131     1165     1166 1
    3132     2989     2990 1
    3133      841      842 1
    3134     3338     3339 1
    3135      965      966 1
    3136     9112     9114 1
    3137     1391     1392 1
    3138     1502     1503 1
    3139      112      113 1
    3140     2264     2265 1
    3141     6659     6660 1
    3142     3857     3858 1
    3143     5582     5583 1
    3144     5159     5160 1
    3145     4823     4824 1
    3146     2003     2004 1
    3147     5614     5615 1
    3148     5065     5066 1
    3149      767      768 1
    3150     6103     6106 1
    3151     1949     1948 1
    3152      814      815 1
    3153     2650     2651 1
    3154    13585    13586 1
    3155     3234     3235 1
    3156     1748     1749 1
    3157      130      131 1
    3158     7468     7469 1
    3159    13987    13988 1
    3160     3137     3138 1
    3161    10222    10224 1
    3162    13798    13800 1
    3163     7306     7308 1
    3164     9883     9885 1
    3165     9223     9225 1
    3166    10546    10548 1
    3167    12205    12207 1
    3168    13813    13815 1
    3169     9385     9387 1
    3170     4624     4625 1
    3171     3552     3551 1
    3172     5388     5387 1
    3173     4632     4631 1
    3174     5499     5498 1
    3175     3039     3041 1
    3176     1203     1205 1
    3177     2175     2177 1
    3178     6460     6461 1
    3179     3868     3869 1
    3180     7609     7611 1
    3181    14548    14549 1
    3182    10762    10764 1
    3183     8257     8259 1
    3184     7063     7064 1
    3185    10915    10916 1
    3186     8623     8624 1
    3187    12535    12536 1
    3188    11257    11258 1
    3189    13174    13175 1
    3190    10699    10700 1
    3191    12931    12932 1
    3192    10996    10997 1
    3193     9592     9593 1
    3194    12403    12404 1
    3195    10084    10086 1
    3196    11488    11490 1
    3197     8005     8007 1
    3198    13243    13245 1
    3199     8086     8088 1
    3200    10003    10005 1
    3201    11326    11328 1
    3202     8248     8250 1
    3203     5557     5558 1
    3204    11560    11562 1
    3205    14179    14180 1
    3206     1101     1102 1
    3207    13711    13712 1
    3208     5285     5286 1
    3209     4736     4737 1
    3210    13939    13941 1
    3211     2194     2173 1
    3212      790      769 1
    3213      559      560 1
    3214     3268     3269 1
    3215      670      671 1
    3216     1114     1093 1
    3217     2626     2605 1
    3218     2506     2507 1
    3219     3379     3380 1
    3220     1432     1433 1
    3221     3478     3477 1
    3222     4309     4308 1
    3223    13975    13977 1
    3224     8818     8820 1
    3225     4405     4406 1
    3226     4072     4073 1
    3227     6340     6341 1
    3228     3967     3968 1
    3229     6241     6242 1
    3230     3754     3755 1
    3231     6019     6020 1
    3232     5945     5946 1
    3233    11878    11880 1
    3234    11716    11718 1
    3235     9016     9018 1
    3236    12094    12096 1
    3237      938      939 1
    3238    13633    13635 1
    3239    10393    10395 1
    3240     9178     9180 1
    3241     8476     8478 1
    3242     4198     4199 1
    3243      410      411 1
    3244     3287     3288 1
    3245     1451     1452 1
    3246    13273    13274 1
    3247     9691     9693 1
    3248    13771    13772 1
    3249     7516     7517 1
    3250     1804     1805 1
    3251      358      359 1
    3252     1048     1049 1
    3253     8200     8202 1
    3254     2078     2079 1
    3255    11845    11846 1
    3256       25       26 1
    3257      100      101 1
    3258    13654    13656 1
    3259    11446    11448 1
    3260     7651     7653 1
    3261     7759     7760 1
    3262    13456    13458 1
    3263     8299     8301 1
    3264    10216    10218 1
    3265    12859    12861 1
    3266    13834    13836 1
    3267    11620    11622 1
    3268    11158    11160 1
    3269     9538     9540 1
    3270     3161     3162 1
    3271     1751     1752 1
    3272     1328     1329 1
    3273      992      993 1
    3274     3374     3375 1
    3275     2828     2829 1
    3276     3846     3847 1
    3277     5682     5683 1
    3278    11800    11802 1
    3279     5906     5907 1
    3280     5120     5121 1
    3281     5126     5125 1
    3282     3241     3244 1
    3283     1405     1408 1
    3284     3868     3847 1
    3285    13873    13875 1
    3286    10945    10946 1
    3287      354      355 1
    3288     3664     3665 1
    3289     3881     3882 1
    3290     5606     5607 1
    3291     7021     7023 1
    3292    13720    13722 1
    3293    13558    13560 1
    3294    10318    10320 1
    3295    11479    11481 1
    3296    11641    11643 1
    3297     8239     8241 1
    3298     7042     7044 1
    3299     4135     4134 1
    3300    13936    13938 1
    3301     6387     6389 1
    3302     7120     7122 1
    3303     7882     7884 1
    3304     8728     8729 1
    3305     4877     4878 1
    3306     1033     1034 1
    3307     3255     3256 1
    3308     6713     6714 1
    3309     6826     6827 1
    3310     4990     4991 1
    3311     4883     4884 1
    3312     5107     5108 1
    3313     1419     1420 1
    3314     3301     3302 1
    3315    14377    14378 1
    3316    14215    14216 1
    3317     8545     8546 1
    3318    11671    11672 1
    3319     7363     7365 1
    3320    14437    14439 1
    3321    10603    10605 1
    3322    11683    11685 1
    3323    11521    11523 1
    3324     8281     8283 1
    3325    10981    10983 1
    3326    10360    10362 1
    3327    12682    12684 1
    3328    12109    12111 1
    3329     8032     8034 1
    3330     9952     9954 1
    3331    12028    12029 1
    3332     5218     5197 1
    3333    12628    12629 1
    3334     6497     6498 1
    3335    12859    12860 1
    3336     6488     6490 1
    3337     5188     5189 1
    3338    11137    11139 1
    3339     1810     1811 1
    3340     4274     4275 1
    3341    12685    12687 1
    3342     1300     1301 1
    3343     6110     6111 1
    3344    12529    12531 1
    3345    13075    13077 1
    3346     5137     5136 1
    3347    13300    13301 1
    3348    12652    12653 1
    3349     9223     9224 1
    3350     7261     7262 1
    3351    11146    11147 1
    3352    10867    10868 1
    3353     6276     6277 1
    3354     6168     6169 1
    3355     4440     4441 1
    3356     2740     2741 1
    3357     5736     5737 1
    3358     6434     6436 1
    3359     3410     3413 1
    3360     1574     1577 1
    3361     3900     3901 1
    3362     5443     5444 1
    3363      213      212 1
    3364    10525    10527 1
    3365     6107     6108 1
    3366     4271     4272 1
    3367     3112     3091 1
    3368    13177    13178 1
    3369     8419     8421 1
    3370     8611     8612 1
    3371     4634     4635 1
    3372     6470     6471 1
    3373      804      805 1
    3374      158      159 1
    3375     2640     2641 1
    3376     7204     7206 1
    3377     2523     2522 1
    3378     1665     1666 1
    3379      850      851 1
    3380     1507     1508 1
    3381     1723     1724 1
    3382      856      857 1
    3383     2692     2693 1
    3384     1618     1619 1
    3385     2797     2798 1
    3386     3343     3344 1
    3387     1834     1835 1
    3388     2581     2582 1
    3389     6408     6409 1
    3390     4820     4821 1
    3391     1542     1543 1
    3392    10177    10179 1
    3393     1801     1802 1
    3394     4759     4760 1
    3395     5264     5263 1
    3396     4713     4714 1
    3397     6549     6550 1
    3398      727      728 1
    3399    14299    14301 1
    3400    10894    10896 1
    3401     1498     1499 1
    3402     7084     7085 1
    3403     8716     8717 1
    3404     7507     7509 1
    3405     7534     7536 1
    3406     7498     7500 1
    3407    13549    13551 1
    3408     3734     3737 1
    3409     5570     5573 1
    3410     7366     7367 1
    3411    14521    14522 1
    3412     7447     7448 1
    3413    10606    10607 1
    3414    12604    12605 1
    3415    14326    14327 1
    3416    12442    12443 1
    3417     9364     9365 1
    3418    14440    14441 1
    3419    12685    12686 1
    3420     9622     9623 1
    3421     1440     1442 1
    3422     2412     2413 1
    3423     8995     8996 1
    3424     4004     4005 1
    3425     8644     8645 1
    3426    12046    12047 1
    3427     8806     8807 1
    3428      576      577 1
    3429      861      862 1
    3430     7045     7046 1
    3431     2810     2812 1
    3432     4054     4055 1
    3433     6611     6612 1
    3434     6072     6073 1
    3435     3696     3697 1
    3436     4125     4126 1
    3437     7642     7644 1
    3438     6596     6599 1
    3439     9079     9080 1
    3440    11605    11607 1
    3441    10282    10284 1
    3442     5303     5304 1
    3443    11968    11969 1
    3444    12376    12377 1
    3445     8527     8529 1
    3446     5784     5785 1
    3447     3948     3949 1
    3448     2739     2740 1
    3449     3570     3571 1
    3450     5406     5407 1
    3451       47       48 1
    3452    13993    13995 1
    3453     2708     2709 1
    3454    12619    12621 1
    3455      872      873 1
    3456     3820     3821 1
    3457     5656     5657 1
    3458     2838     2839 1
    3459     1215     1216 1
    3460     1002     1003 1
    3461     2568     2569 1
    3462     2025     2026 1
    3463     3099     3100 1
    3464       77       78 1
    3465     1263     1264 1
    3466      300      301 1
    3467      467      468 1
    3468     5766     5767 1
    3469     3930     3931 1
    3470     3819     3820 1
    3471     4578     4579 1
    3472     6414     6415 1
    3473      264      263 1
    3474      687      686 1
    3475     6525     6526 1
    3476     5655     5656 1
    3477     4689     4690 1
    3478     5942     5944 1
    3479     8782     8784 1
    3480    12970    12971 1
    3481     7813     7814 1
    3482     7672     7673 1
    3483     3032     3034 1
    3484     1196     1198 1
    3485     2384     2386 1
    3486      548      550 1
    3487     5077     5080 1
    3488     5590     5591 1
    3489     2429     2430 1
    3490     2630     2631 1
    3491     1667     1668 1
    3492     5650     5651 1
    3493     6455     6454 1
    3494     1613     1614 1
    3495     2375     2376 1
    3496     3449     3450 1
    3497      539      540 1
    3498    11191    11193 1
    3499     7336     7337 1
    3500     7954     7956 1
    3501     4236     4235 1
    3502      736      737 1
    3503     5850     5849 1
    3504     2572     2573 1
    3505     4014     4013 1
    3506     5649     5648 1
    3507     4954     4955 1
    3508     3697     3698 1
    3509    14356    14357 1
    3510     4098     4099 1
    3511    11554    11556 1
    3512     5577     5579 1
    3513     6873     6875 1
    3514     6484     6485 1
    3515     3384     3386 1
    3516     2218     2219 1
    3517     5728     5729 1
    3518     1786     1787 1
    3519     4490     4491 1
    3520     6326     6327 1
    3521      544      545 1
    3522    12040    12041 1
    3523     4151     4152 1
    3524     4901     4902 1
    3525     6737     6738 1
    3526     5987     5988 1
    3527     3777     3778 1
    3528     2851     2852 1
    3529      275      274 1
    3530     2111     2110 1
    3531    12730    12732 1
    3532     1358     1360 1
    3533     3194     3196 1
    3534     2006     2008 1
    3535     6639     6638 1
    3536     9799     9800 1
    3537    12850    12851 1
    3538     8881     8882 1
    3539     9043     9044 1
    3540     9961     9962 1
    3541     9610     9611 1
    3542    13768    13769 1
    3543    13606    13607 1
    3544    11284    11285 1
    3545    10771    10772 1
    3546    12715    12716 1
    3547     7951     7953 1
    3548    14107    14109 1
    3549     8950     8952 1
    3550    10030    10032 1
    3551       60       61 1
    3552    13270    13272 1
    3553    12352    12354 1
    3554    11353    11355 1
    3555    13108    13110 1
    3556     2589     2590 1
    3557      241      242 1
    3558     2839     2840 1
    3559      892      893 1
    3560     1003     1004 1
    3561      135      136 1
    3562     6913     6914 1
    3563     2515     2516 1
    3564     3151     3152 1
    3565     7807     7808 1
    3566     1864     1865 1
    3567    13369    13370 1
    3568     3664     3663 1
    3569     1304     1307 1
    3570      760      757 1
    3571     2596     2593 1
    3572     4553     4554 1
    3573     4673     4674 1
    3574     8071     8073 1
    3575     9988     9990 1
    3576    13822    13824 1
    3577    11581    11583 1
    3578     5747     5748 1
    3579    13903    13905 1
    3580     9907     9909 1
    3581     4016     4017 1
    3582     2561     2562 1
    3583     4194     4196 1
    3584     6030     6032 1
    3585    12538    12540 1
    3586     8326     8328 1
    3587    12754    12755 1
    3588     4868     4870 1
    3589     1870     1871 1
    3590     8599     8600 1
    3591     9109     9111 1
    3592    13642    13643 1
    3593     2543     2544 1
    3594     6183     6182 1
    3595     2534     2533 1
    3596     3029     3028 1
    3597    13159    13161 1
    3598     9919     9921 1
    3599     8026     8028 1
    3600     8188     8190 1
    3601    10375    10377 1
    3602     8110     8112 1
    3603    13321    13323 1
    3604    11698    11700 1
    3605    11536    11538 1
    3606    10189    10191 1
    3607    10327    10328 1
    3608     3756     3757 1
    3609     5592     5593 1
    3610     3534     3535 1
    3611     6666     6667 1
    3612     4830     4831 1
    3613     1562     1563 1
    3614     4608     4609 1
    3615     4719     4720 1
    3616     4296     4297 1
    3617    14425    14426 1
    3618     1975     1974 1
    3619    10963    10965 1
    3620     6098     6099 1
    3621      621      622 1
    3622     4373     4374 1
    3623     5165     5166 1
    3624      691      692 1
    3625     2527     2528 1
    3626    10474    10476 1
    3627    12478    12480 1
    3628     2682     2683 1
    3629     6007     6008 1
    3630     1094     1095 1
    3631      230      231 1
    3632     6486     6487 1
    3633     4758     4759 1
    3634     4140     4142 1
    3635     3501     3502 1
    3636    11857    11859 1
    3637      941      942 1
    3638     4360     4361 1
    3639     8926     8927 1
    3640     4277     4278 1
    3641    11398    11400 1
    3642     7915     7917 1
    3643     2410     2389 1
    3644    10156    10158 1
    3645     7117     7119 1
    3646    11317    11319 1
    3647      574      553 1
    3648     8077     8079 1
    3649     9994     9996 1
    3650     9913     9915 1
    3651     7279     7280 1
    3652    14353    14354 1
    3653     7126     7128 1
    3654     5485     5486 1
    3655     3649     3650 1
    3656      328      325 1
    3657    11527    11528 1
    3658     4130     4131 1
    3659     5966     5967 1
    3660     3797     3798 1
    3661     4892     4893 1
    3662     6727     6728 1
    3663     9712     9713 1
    3664    11473    11474 1
    3665    12172    12173 1
    3666     6610     6611 1
    3667     3860     3861 1
    3668     3971     3972 1
    3669     1816     1817 1
    3670    11068    11070 1
    3671    11989    11990 1
    3672    10744    10746 1
    3673     6863     6862 1
    3674    13831    13832 1
    3675     1554     1553 1
    3676     3188     3190 1
    3677     8911     8912 1
    3678    10789    10790 1
    3679    14350    14351 1
    3680     6650     6651 1
    3681     4814     4815 1
    3682     5138     5139 1
    3683    14371    14373 1
    3684    12535    12537 1
    3685    13321    13322 1
    3686    12193    12195 1
    3687    14122    14124 1
    3688    12367    12369 1
    3689     9667     9669 1
    3690    13786    13788 1
    3691     8965     8967 1
    3692     5967     5968 1
    3693     9046     9048 1
    3694     9505     9507 1
    3695    14488    14490 1
    3696     6764     6765 1
    3697    11959    11961 1
    3698       49       48 1
    3699     6744     6745 1
    3700     7129     7131 1
    3701     6819     6820 1
    3702     5029     5030 1
    3703     3626     3628 1
    3704     7936     7937 1
    3705    11893    11895 1
    3706    13567    13569 1
    3707    11650    11652 1
    3708     3192     3193 1
    3709     2868     2869 1
    3710    10246    10248 1
    3711    13648    13650 1
    3712     8572     8574 1
    3713     8329     8331 1
    3714    13486    13488 1
    3715    11344    11345 1
    3716     8521     8522 1
    3717     7513     7515 1
    3718    10528    10529 1
    3719     2950     2929 1
    3720    10168    10170 1
    3721     3063     3064 1
    3722      264      265 1
    3723      687      688 1
    3724     1338     1339 1
    3725      915      916 1
    3726     3174     3175 1
    3727     2634     2635 1
    3728      624      625 1
    3729    12307    12309 1
    3730     3564     3563 1
    3731     5398     5397 1
    3732     1402     1403 1
    3733     3238     3239 1
    3734     1291     1292 1
    3735     1828     1829 1
    3736     2050     2051 1
    3737      731      732 1
    3738     2879     2880 1
    3739     1043     1044 1
    3740     3156     3155 1
    3741     1783     1786 1
    3742    12817    12818 1
    3743     8854     8856 1
    3744     2636     2637 1
    3745    10180    10181 1
    3746    10162    10164 1
    3747      800      801 1
    3748    12520    12522 1
    3749     7318     7320 1
    3750    13312    13314 1
    3751     6940     6941 1
    3752     9613     9615 1
    3753     6239     6240 1
    3754     5366     5367 1
    3755     7849     7851 1
    3756    12364    12366 1
    3757     9586     9587 1
    3758     1622     1624 1
    3759    12889    12891 1
    3760     9379     9380 1
    3761     8620     8621 1
    3762    10264    10265 1
    3763     8752     8753 1
    3764     6704     6705 1
    3765    10345    10346 1
    3766     3572     3573 1
    3767    11911    11912 1
    3768    13666    13667 1
    3769      684      685 1
    3770    13504    13505 1
    3771     2373     2374 1
    3772      420      421 1
    3773     1640     1641 1
    3774    14485    14486 1
    3775     1559     1560 1
    3776     3701     3702 1
    3777     1965     1964 1
    3778     3804     3805 1
    3779      609      610 1
    3780      655      656 1
    3781     2491     2492 1
    3782      478      479 1
    3783     2425     2426 1
    3784      796      797 1
    3785     5084     5087 1
    3786     1729     1732 1
    3787     2053     2056 1
    3788      649      652 1
    3789    13303    13304 1
    3790    10225    10226 1
    3791    13465    13466 1
    3792    13816    13817 1
    3793    14194    14195 1
    3794    14383    14384 1
    3795    14221    14222 1
    3796    11737    11738 1
    3797    11575    11576 1
    3798    10414    10415 1
    3799     2757     2758 1
    3800      921      922 1
    3801    13894    13896 1
    3802     6708     6709 1
    3803     1623     1624 1
    3804     9496     9498 1
    3805    10630    10632 1
    3806      288      289 1
    3807     2124     2125 1
    3808     6922     6923 1
    3809     3420     3421 1
    3810     2997     2998 1
    3811     3108     3109 1
    3812     1272     1273 1
    3813     6927     6925 1
    3814     1966     1967 1
    3815     1695     1696 1
    3816     5927     5928 1
    3817     6359     6360 1
    3818    13267    13269 1
    3819     5205     5206 1
    3820    12664    12666 1
    3821     1678     1676 1
    3822     5971     5970 1
    3823     1374     1375 1
    3824     4551     4553 1
    3825    14413    14415 1
    3826     2823     2824 1
    3827     2869     2870 1
    3828      987      988 1
    3829     1465     1466 1
    3830    13870    13871 1
    3831     8221     8222 1
    3832    13729    13730 1
    3833    11461    11462 1
    3834    11623    11624 1
    3835    13702    13703 1
    3836    11812    11813 1
    3837    13405    13406 1
    3838    12355    12356 1
    3839    10300    10301 1
    3840    13891    13892 1
    3841     1054     1055 1
    3842      517      518 1
    3843     2353     2354 1
    3844     9847     9848 1
    3845     5889     5890 1
    3846     4053     4054 1
    3847     1708     1709 1
    3848     2162     2164 1
    3849     1040     1041 1
    3850     7087     7089 1
    3851     2876     2877 1
    3852     2628     2629 1
    3853     2596     2597 1
    3854      760      761 1
    3855     1193     1194 1
    3856    11599    11601 1
    3857     9937     9939 1
    3858    11518    11520 1
    3859    13177    13179 1
    3860    10276    10278 1
    3861    11680    11682 1
    3862    12934    12936 1
    3863    11260    11262 1
    3864     8278     8280 1
    3865    10357    10359 1
    3866      555      557 1
    3867     7414     7415 1
    3868     7684     7686 1
    3869    12775    12776 1
    3870     9226     9227 1
    3871     4819     4820 1
    3872     6967     6968 1
    3873     8017     8018 1
    3874     8098     8099 1
    3875    13255    13256 1
    3876    10015    10016 1
    3877    10096    10097 1
    3878    11500    11501 1
    3879    11338    11339 1
    3880     8179     8180 1
    3881     8260     8261 1
    3882    12136    12138 1
    3883     8896     8898 1
    3884    12298    12300 1
    3885    14032    14034 1
    3886     6596     6598 1
    3887    14053    14055 1
    3888     4795     4796 1
    3889    10828    10829 1
    3890     9559     9560 1
    3891     6647     6648 1
    3892     6215     6216 1
    3893     4379     4380 1
    3894     4811     4812 1
    3895     9058     9059 1
    3896     1762     1741 1
    3897     2395     2396 1
    3898      889      890 1
    3899     2614     2615 1
    3900     1443     1442 1
    3901     3279     3278 1
    3902    12220    12222 1
    3903     4186     4187 1
    3904     6238     6239 1
    3905     5149     5150 1
    3906     8287     8289 1
    3907     7369     7371 1
    3908    11689    11691 1
    3909    10609    10611 1
    3910    10366    10368 1
    3911    11527    11529 1
    3912    12421    12423 1
    3913    12688    12690 1
    3914    12412    12413 1
    3915    14443    14445 1
    3916     9577     9579 1
    3917     1267     1268 1
    3918     3103     3104 1
    3919      250      251 1
    3920     2341     2342 1
    3921     1356     1357 1
    3922     8443     8444 1
    3923    11095    11097 1
    3924    10510    10512 1
    3925     8500     8502 1
    3926     4274     4277 1
    3927     6110     6113 1
    3928     9256     9258 1
    3929     8770     8771 1
    3930     7528     7529 1
    3931    12847    12848 1
    3932     9013     9014 1
    3933     9607     9608 1
    3934     9445     9446 1
    3935     3891     3892 1
    3936    10849    10850 1
    3937    10768    10769 1
    3938     7690     7691 1
    3939    12646    12648 1
    3940     5727     5728 1
    3941    13966    13968 1
    3942     4648     4649 1
    3943     2216     2218 1
    3944     6808     6809 1
    3945     1138     1139 1
    3946      782      783 1
    3947     1745     1746 1
    3948     5998     5999 1
    3949      868      869 1
    3950     2704     2705 1
    3951     6885     6886 1
    3952     6774     6775 1
    3953     4102     4103 1
    3954     6898     6899 1
    3955     5062     5063 1
    3956     6250     6251 1
    3957     4414     4415 1
    3958     5049     5050 1
    3959     8245     8247 1
    3960    13534    13536 1
    3961     9466     9468 1
    3962     6913     6915 1
    3963     4193     4194 1
    3964     6029     6030 1
    3965    10405    10406 1
    3966    11767    11769 1
    3967    13684    13686 1
    3968    11929    11931 1
    3969    12928    12930 1
    3970    14374    14375 1
    3971     7933     7935 1
    3972     8488     8489 1
    3973    10444    10446 1
    3974    11953    11954 1
    3975    13090    13092 1
    3976     4581     4580 1
    3977     6417     6416 1
    3978    14251    14253 1
    3979     3657     3658 1
    3980     3786     3787 1
    3981     5622     5623 1
    3982     3793     3794 1
    3983    12157    12159 1
    3984     6640     6641 1
    3985     4693     4694 1
    3986     2400     2401 1
    3987      564      565 1
    3988     6368     6369 1
    3989     9784     9786 1
    3990     2151     2150 1
    3991    10615    10617 1
    3992    12694    12696 1
    3993     6132     6131 1
    3994    10372    10374 1
    3995     5163     5162 1
    3996     7375     7377 1
    3997     7213     7215 1
    3998    11695    11697 1
    3999    11533    11535 1
    4000     8293     8295 1
    4001     5877     5878 1
    4002     4041     4042 1
    4003     2009     2010 1
    4004      798      797 1
    4005     5223     5224 1
    4006     1665     1664 1
    4007     5415     5417 1
    4008     3579     3581 1
    4009     7144     7146 1
    4010     3806     3807 1
    4011     2027     2028 1
    4012     5093     5094 1
    4013     5422     5423 1
    4014     3586     3587 1
    4015     6718     6719 1
    4016     5644     5645 1
    4017     6295     6296 1
    4018     4459     4460 1
    4019     4339     4340 1
    4020    13381    13382 1
    4021     3808     3809 1
    4022     5533     5534 1
    4023      336      337 1
    4024     1416     1417 1
    4025     1308     1309 1
    4026    13060    13062 1
    4027    10900    10902 1
    4028     8011     8013 1
    4029     2842     2843 1
    4030    11494    11496 1
    4031     2546     2547 1
    4032      710      711 1
    4033    10009    10011 1
    4034    13249    13251 1
    4035     8092     8094 1
    4036     6816     6815 1
    4037     3299     3300 1
    4038     7957     7959 1
    4039      188      187 1
    4040     5210     5211 1
    4041      404      405 1
    4042     3497     3498 1
    4043    12586    12587 1
    4044     9829     9830 1
    4045     2513     2514 1
    4046     9208     9210 1
    4047    14365    14367 1
    4048     1385     1386 1
    4049     3221     3222 1
    4050     9919     9920 1
    4051     8359     8361 1
    4052    11503    11505 1
    4053    11341    11343 1
    4054     4341     4342 1
    4055    10288    10290 1
    4056    11611    11613 1
    4057    13516    13518 1
    4058     7927     7929 1
    4059    10018    10020 1
    4060    12922    12924 1
    4061     6300     6301 1
    4062     4712     4713 1
    4063     4464     4465 1
    4064     6548     6549 1
    4065     3524     3525 1
    4066     1984     1985 1
    4067     1021     1022 1
    4068     5360     5361 1
    4069     2857     2858 1
    4070    11734    11735 1
    4071     9901     9902 1
    4072     5892     5893 1
    4073     2362     2363 1
    4074     6261     6262 1
    4075     6798     6799 1
    4076     3987     3988 1
    4077     4200     4201 1
    4078     4737     4738 1
    4079     7864     7866 1
    4080     9082     9083 1
    4081     9391     9392 1
    4082    10357    10358 1
    4083     1708     1687 1
    4084    13339    13340 1
    4085     2418     2419 1
    4086     2529     2530 1
    4087      693      694 1
    4088     1881     1882 1
    4089     7012     7014 1
    4090     2929     2930 1
    4091      836      835 1
    4092     8827     8829 1
    4093     6389     6390 1
    4094     1991     1992 1
    4095     3325     3326 1
    4096     1264     1265 1
    4097     3505     3506 1
    4098    11791    11793 1
    4099     2159     2160 1
    4100     6326     6329 1
    4101     4490     4493 1
    4102     9715     9716 1
    4103     8014     8015 1
    4104    12955    12956 1
    4105    10093    10094 1
    4106     8176     8177 1
    4107     8710     8711 1
    4108     4483     4486 1
    4109     6211     6214 1
    4110    11539    11541 1
    4111     7636     7637 1
    4112    13867    13868 1
    4113    10240    10242 1
    4114     3727     3730 1
    4115     9403     9405 1
    4116     1246     1247 1
    4117      576      578 1
    4118     9859     9860 1
    4119     2412     2414 1
    4120      309      310 1
    4121     1821     1822 1
    4122     2145     2146 1
    4123     2768     2769 1
    4124     9697     9698 1
    4125     7780     7781 1
    4126     3060     3061 1
    4127     7162     7163 1
    4128      630      632 1
    4129       46       47 1
    4130     7558     7559 1
    4131    13585    13587 1
    4132     1149     1150 1
    4133     4014     4015 1
    4134     5160     5161 1
    4135     5961     5962 1
    4136    12667    12668 1
    4137    13987    13989 1
    4138     2985     2986 1
    4139      268      269 1
    4140      592      593 1
    4141      256      257 1
    4142     3707     3708 1
    4143     5840     5843 1
    4144    12334    12336 1
    4145     9094     9096 1
    4146     8716     8718 1
    4147     8635     8637 1
    4148    12037    12039 1
    4149     8797     8799 1
    4150    11251    11252 1
    4151     9928     9929 1
    4152     4164     4165 1
    4153     4488     4489 1
    4154    12925    12926 1
    4155     7930     7931 1
    4156    13330    13331 1
    4157     1202     1203 1
    4158     2790     2791 1
    4159      306      307 1
    4160      554      555 1
    4161     3038     3039 1
    4162     7198     7199 1
    4163     7006     7007 1
    4164     5190     5191 1
    4165     4788     4790 1
    4166     6624     6626 1
    4167     6594     6595 1
    4168     1947     1948 1
    4169     3356     3357 1
    4170     1520     1521 1
    4171     2924     2925 1
    4172     6748     6749 1
    4173      990      991 1
    4174     3162     3163 1
    4175     2826     2827 1
    4176     2889     2890 1
    4177     2778     2779 1
    4178      942      943 1
    4179      516      517 1
    4180     2352     2353 1
    4181     1053     1054 1
    4182     4628     4629 1
    4183     4202     4203 1
    4184      520      499 1
    4185     2356     2335 1
    4186      526      525 1
    4187     2736     2737 1
    4188     2843     2844 1
    4189      251      252 1
    4190      899      900 1
    4191     6901     6900 1
    4192     5065     5064 1
    4193     4828     4829 1
    4194     2450     2449 1
    4195     6448     6449 1
    4196     2672     2671 1
    4197     4612     4613 1
    4198     7078     7080 1
    4199       85       86 1
    4200      830      831 1
    4201     1598     1599 1
    4202     1653     1652 1
    4203     3203     3204 1
    4204     1166     1167 1
    4205     1703     1704 1
    4206     1351     1354 1
    4207      332      334 1
    4208     2168     2170 1
    4209    10750    10751 1
    4210     2445     2447 1
    4211     6556     6557 1
    4212     5155     5156 1
    4213     1673     1674 1
    4214     1124     1125 1
    4215      179      180 1
    4216     1661     1662 1
    4217     1874     1875 1
    4218     1448     1449 1
    4219    12751    12753 1
    4220     2960     2961 1
    4221    12721    12722 1
    4222     3335     3336 1
    4223      851      852 1
    4224     3224     3225 1
    4225     1388     1389 1
    4226    13771    13773 1
    4227    13273    13275 1
    4228     4126     4127 1
    4229     5798     5799 1
    4230     4187     4188 1
    4231     3851     3852 1
    4232    11845    11847 1
    4233     1600     1601 1
    4234     2456     2457 1
    4235     6375     6376 1
    4236     8971     8972 1
    4237    10672    10673 1
    4238    10174    10175 1
    4239     9748     9749 1
    4240     2242     2243 1
    4241     4598     4599 1
    4242     7009     7010 1
    4243     1277     1278 1
    4244     3113     3114 1
    4245     7921     7922 1
    4246     6217     6216 1
    4247     5674     5672 1
    4248     4560     4561 1
    4249     4381     4380 1
    4250     5634     5635 1
    4251     5216     5217 1
    4252     6530     6531 1
    4253     6422     6423 1
    4254     5012     5013 1
    4255     3107     3108 1
    4256    12733    12734 1
    4257     3771     3772 1
    4258     5718     5719 1
    4259    12472    12473 1
    4260    14104    14105 1
    4261     9349     9350 1
    4262     7270     7271 1
    4263    12553    12554 1
    4264    10555    10556 1
    4265     5462     5464 1
    4266     8947     8948 1
    4267     9028     9029 1
    4268    10636    10637 1
    4269      211      212 1
    4270     2397     2398 1
    4271      561      562 1
    4272     7195     7197 1
    4273     3159     3160 1
    4274     6955     6957 1
    4275    11071    11072 1
    4276     2846     2844 1
    4277     7231     7232 1
    4278     4958     4959 1
    4279     3482     3483 1
    4280    13330    13332 1
    4281      872      875 1
    4282     3317     3316 1
    4283     6830     6831 1
    4284     2708     2711 1
    4285    14404    14406 1
    4286    11725    11727 1
    4287    10402    10404 1
    4288    11635    11637 1
    4289    10312    10314 1
    4290    13552    13554 1
    4291    13795    13797 1
    4292    11473    11475 1
    4293     3692     3693 1
    4294    13957    13959 1
    4295    12202    12204 1
    4296     5528     5529 1
    4297     1803     1802 1
    4298     2289     2288 1
    4299     8578     8579 1
    4300    12889    12890 1
    4301     3654     3656 1
    4302     6138     6140 1
    4303     4302     4304 1
    4304     3284     3285 1
    4305     5490     5492 1
    4306     3471     3473 1
    4307     6894     6896 1
    4308      266      267 1
    4309     9880     9881 1
    4310     2309     2310 1
    4311     3125     3126 1
    4312     8410     8412 1
    4313      709      708 1
    4314     4499     4500 1
    4315     6023     6024 1
    4316     5261     5262 1
    4317     6134     6135 1
    4318      197      198 1
    4319     9886     9888 1
    4320     6650     6653 1
    4321     4814     4817 1
    4322     5138     5141 1
    4323     3943     3946 1
    4324    10621    10622 1
    4325    13861    13863 1
    4326    12403    12405 1
    4327     8380     8382 1
    4328     9214     9216 1
    4329    12241    12243 1
    4330     8704     8706 1
    4331     8623     8625 1
    4332    12322    12324 1
    4333     7837     7839 1
    4334     8785     8787 1
    4335     2501     2502 1
    4336     2624     2625 1
    4337     3864     3865 1
    4338     6339     6340 1
    4339     3753     3754 1
    4340     3642     3643 1
    4341     4503     4504 1
    4342     5589     5590 1
    4343     5586     5587 1
    4344     6222     6223 1
    4345     4386     4387 1
    4346     9589     9591 1
    4347     5488     5489 1
    4348     5057     5058 1
    4349     3652     3653 1
    4350     1447     1448 1
    4351    13300    13302 1
    4352    12652    12654 1
    4353     4757     4758 1
    4354    14398    14399 1
    4355      210      209 1
    4356     5228     5229 1
    4357     6683     6684 1
    4358     5396     5397 1
    4359     6902     6903 1
    4360     4847     4848 1
    4361    13021    13023 1
    4362     5066     5067 1
    4363    13801    13803 1
    4364    14287    14289 1
    4365     5840     5842 1
    4366     9292     9294 1
    4367    12532    12534 1
    4368    12208    12210 1
    4369     1135     1138 1
    4370    13963    13965 1
    4371     9130     9132 1
    4372    14338    14339 1
    4373     6508     6509 1
    4374     7174     7176 1
    4375     6934     6936 1
    4376     1959     1960 1
    4377     4345     4346 1
    4378     4567     4568 1
    4379     6292     6293 1
    4380     4987     4988 1
    4381     6823     6824 1
    4382     6403     6404 1
    4383     5509     5512 1
    4384     4217     4218 1
    4385     8839     8841 1
    4386    13996    13998 1
    4387    12763    12765 1
    4388    10846    10848 1
    4389     8956     8958 1
    4390    14113    14115 1
    4391    11008    11010 1
    4392     2114     2115 1
    4393    10441    10443 1
    4394    11926    11928 1
    4395    13276    13278 1
    4396    10036    10038 1
    4397     9940     9941 1
    4398     6423     6424 1
    4399     6321     6322 1
    4400    13102    13103 1
    4401     1895     1896 1
    4402    11359    11361 1
    4403     2680     2681 1
    4404     2040     2041 1
    4405    12391    12393 1
    4406    13366    13367 1
    4407     8089     8090 1
    4408    11998    11999 1
    4409     4818     4817 1
    4410     2046     2047 1
    4411     3120     3121 1
    4412     1284     1285 1
    4413    10786    10788 1
    4414    11947    11948 1
    4415     3622     3623 1
    4416     5458     5459 1
    4417     3244     3245 1
    4418    12226    12227 1
    4419    14326    14328 1
    4420     1556     1557 1
    4421     1493     1494 1
    4422     3329     3330 1
    4423     5742     5743 1
    4424     5430     5431 1
    4425     3594     3595 1
    4426     4904     4905 1
    4427     5144     5145 1
    4428     4896     4897 1
    4429     5112     5113 1
    4430     6732     6733 1
    4431     4007     4008 1
    4432     5519     5520 1
    4433    12712    12713 1
    4434    10795    10796 1
    4435     4300     4279 1
    4436     6784     6763 1
    4437     8146     8147 1
    4438     5994     5993 1
    4439     6655     6656 1
    4440     4158     4157 1
    4441     7096     7097 1
    4442     6195     6194 1
    4443     6300     6302 1
    4444     7177     7179 1
    4445     2749     2750 1
    4446     4765     4766 1
    4447     2870     2873 1
    4448     4165     4166 1
    4449     2762     2765 1
    4450      926      929 1
    4451    12832    12833 1
    4452    14215    14217 1
    4453    14377    14379 1
    4454     8545     8547 1
    4455     5773     5774 1
    4456     5662     5663 1
    4457     4925     4926 1
    4458     6761     6762 1
    4459     4859     4860 1
    4460      369      370 1
    4461     1446     1447 1
    4462     4780     4779 1
    4463     6505     6504 1
    4464     3393     3394 1
    4465     2470     2471 1
    4466     3232     3233 1
    4467     1396     1397 1
    4468     1534     1535 1
    4469      322      323 1
    4470     8092     8093 1
    4471      235      236 1
    4472     3417     3419 1
    4473     1581     1583 1
    4474     4537     4540 1
    4475     5315     5316 1
    4476     7672     7674 1
    4477     6988     6989 1
    4478     1261     1262 1
    4479     7336     7338 1
    4480     1454     1453 1
    4481     9040     9041 1
    4482    14008    14009 1
    4483     8959     8960 1
    4484    13846    13847 1
    4485     8878     8879 1
    4486     8689     8690 1
    4487    14116    14117 1
    4488    13927    13928 1
    4489     8851     8852 1
    4490    12361    12362 1
    4491     7300     7301 1
    4492    11776    11777 1
    4493     7618     7619 1
    4494      318      319 1
    4495    10453    10454 1
    4496     2691     2692 1
    4497     1427     1428 1
    4498      855      856 1
    4499    11938    11939 1
    4500     1617     1618 1
    4501     3453     3454 1
    4502     2154     2155 1
    4503     3263     3264 1
    4504     2189     2190 1
    4505     4750     4751 1
    4506     6364     6365 1
    4507     6586     6587 1
    4508     4639     4640 1
    4509     4528     4529 1
    4510    14173    14175 1
    4511     6074     6075 1
    4512     6475     6476 1
    4513     4594     4592 1
    4514     5526     5527 1
    4515     5538     5539 1
    4516     6294     6295 1
    4517     3702     3703 1
    4518     3690     3691 1
    4519     4458     4459 1
    4520     6468     6469 1
    4521     6515     6516 1
    4522     4679     4680 1
    4523     4868     4871 1
    4524     7771     7773 1
    4525     6599     6600 1
    4526    11173    11175 1
    4527     5843     5844 1
    4528    13198    13200 1
    4529     9796     9798 1
    4530     9958     9960 1
    4531    11443    11445 1
    4532    11281    11283 1
    4533     9850     9852 1
    4534      705      706 1
    4535     2541     2542 1
    4536     1893     1894 1
    4537     6528     6527 1
    4538     4848     4849 1
    4539     4959     4960 1
    4540     8509     8510 1
    4541    14155    14157 1
    4542     6529     6530 1
    4543      125      126 1
    4544     2454     2455 1
    4545     3204     3205 1
    4546     3315     3316 1
    4547     1368     1369 1
    4548      618      619 1
    4549     8518     8520 1
    4550     5314     5315 1
    4551     3479     3480 1
    4552     6575     6576 1
    4553    14308    14309 1
    4554     1655     1656 1
    4555     8383     8385 1
    4556     5294     5296 1
    4557     8944     8946 1
    4558    12607    12608 1
    4559     2682     2684 1
    4560     7450     7451 1
    4561     2335     2336 1
    4562     7807     7809 1
    4563    13369    13371 1
    4564     8035     8036 1
    4565    11827    11828 1
    4566     8413     8414 1
    4567    13420    13421 1
    4568     1678     1675 1
    4569    13570    13571 1
    4570     9964     9965 1
    4571     9628     9629 1
    4572    13204    13205 1
    4573    10330    10331 1
    4574     1041     1043 1
    4575     2877     2879 1
    4576     4942     4943 1
    4577     3240     3239 1
    4578     4550     4551 1
    4579       68       69 1
    4580     4570     4571 1
    4581     6406     6407 1
    4582     5758     5759 1
    4583     2668     2669 1
    4584     1156     1157 1
    4585     3922     3923 1
    4586      575      574 1
    4587     2557     2558 1
    4588     3276     3277 1
    4589     2411     2410 1
    4590      229      250 1
    4591     2477     2478 1
    4592     3549     3550 1
    4593    11983    11984 1
    4594     7039     7041 1
    4595     3499     3500 1
    4596    12514    12515 1
    4597     2488     2489 1
    4598     5024     5026 1
    4599    13690    13692 1
    4600    11437    11439 1
    4601     7765     7767 1
    4602    11935    11937 1
    4603    11167    11169 1
    4604    13582    13584 1
    4605     4574     4575 1
    4606    13192    13194 1
    4607    11275    11277 1
    4608    11773    11775 1
    4609     6410     6411 1
    4610     4685     4686 1
    4611     6521     6522 1
    4612     5234     5235 1
    4613     2607     2609 1
    4614     4740     4741 1
    4615     9382     9384 1
    4616     1589     1590 1
    4617    12631    12632 1
    4618    12388    12389 1
    4619    11020    11021 1
    4620      116      117 1
    4621     3981     3982 1
    4622     6690     6691 1
    4623    12295    12296 1
    4624     9124     9125 1
    4625     9322     9323 1
    4626     9286     9287 1
    4627    12526    12527 1
    4628    14050    14051 1
    4629     7732     7733 1
    4630    12133    12134 1
    4631     8893     8894 1
    4632     6541     6542 1
    4633     5137     5138 1
    4634     2760     2761 1
    4635     5091     5092 1
    4636      924      925 1
    4637     4801     4802 1
    4638     4264     4265 1
    4639     4252     4253 1
    4640    13414    13415 1
    4641    10633    10634 1
    4642     2077     2076 1
    4643     2733     2732 1
    4644     1404     1403 1
    4645     3441     3440 1
    4646     2373     2372 1
    4647      849      848 1
    4648      451      452 1
    4649     2287     2288 1
    4650     1213     1214 1
    4651     3049     3050 1
    4652     2938     2939 1
    4653     5166     5167 1
    4654     6013     6014 1
    4655     6124     6125 1
    4656     1516     1513 1
    4657     6722     6723 1
    4658    10987    10989 1
    4659     5972     5973 1
    4660     1151     1152 1
    4661    12823    12825 1
    4662     5099     5100 1
    4663     7828     7830 1
    4664    10906    10908 1
    4665     6173     6174 1
    4666    13066    13068 1
    4667     7279     7281 1
    4668    14353    14355 1
    4669     8968     8969 1
    4670     2249     2248 1
    4671     5088     5089 1
    4672     2642     2643 1
    4673     7219     7221 1
    4674     7906     7908 1
    4675     3433     3434 1
    4676     2045     2046 1
    4677      971      972 1
    4678     2081     2082 1
    4679     3119     3120 1
    4680      422      423 1
    4681     1832     1833 1
    4682     2258     2259 1
    4683     3332     3333 1
    4684     1496     1497 1
    4685     9403     9404 1
    4686    13336    13338 1
    4687    12697    12699 1
    4688     2219     2220 1
    4689     1463     1464 1
    4690      629      630 1
    4691     3690     3689 1
    4692    12658    12660 1
    4693     8122     8123 1
    4694    11416    11417 1
    4695    13495    13496 1
    4696     8662     8663 1
    4697     8338     8339 1
    4698     7798     7799 1
    4699     5995     5998 1
    4700    14479    14481 1
    4701    11038    11039 1
    4702    10201    10202 1
    4703    10645    10647 1
    4704    10456    10457 1
    4705     9244     9246 1
    4706    11956    11957 1
    4707     1645     1646 1
    4708     8179     8181 1
    4709     7216     7217 1
    4710    14077    14078 1
    4711     1686     1687 1
    4712     3833     3834 1
    4713     5663     5664 1
    4714     8911     8913 1
    4715     5489     5490 1
    4716     3653     3654 1
    4717    10789    10791 1
    4718     5912     5913 1
    4719      184      185 1
    4720     5543     5544 1
    4721    13807    13808 1
    4722    14197    14199 1
    4723    12280    12282 1
    4724    13792    13794 1
    4725    10984    10986 1
    4726    13063    13065 1
    4727    12199    12201 1
    4728    10903    10905 1
    4729    14359    14361 1
    4730     7825     7827 1
    4731    14494    14496 1
    4732      954      955 1
    4733     3222     3223 1
    4734     1386     1387 1
    4735     4317     4318 1
    4736     6153     6154 1
    4737     1551     1552 1
    4738     4542     4543 1
    4739     6378     6379 1
    4740     1083     1084 1
    4741     1088     1089 1
    4742     3934     3935 1
    4743      567      568 1
    4744     2514     2515 1
    4745    11032    11033 1
    4746      412      391 1
    4747     6899     6900 1
    4748     5063     5064 1
    4749    13828    13830 1
    4750    13747    13749 1
    4751    11830    11832 1
    4752    11587    11589 1
    4753    13423    13425 1
    4754    13909    13911 1
    4755    10426    10428 1
    4756    11749    11751 1
    4757     8509     8511 1
    4758     7069     7071 1
    4759     9100     9101 1
    4760    12340    12341 1
    4761     4518     4519 1
    4762     7453     7454 1
    4763     6279     6281 1
    4764     8521     8523 1
    4765     1814     1813 1
    4766    13081    13083 1
    4767     1478     1479 1
    4768     2888     2889 1
    4769      231      232 1
    4770     1095     1096 1
    4771     5431     5432 1
    4772     4558     4559 1
    4773    10720    10721 1
    4774     1459     1462 1
    4775     7981     7982 1
    4776     4777     4778 1
    4777     4555     4556 1
    4778     5320     5321 1
    4779    12799    12800 1
    4780    13636    13637 1
    4781    11881    11882 1
    4782     3187     3190 1
    4783     1158     1157 1
    4784     5053     5054 1
    4785     8062     8063 1
    4786    11485    11487 1
    4787    12919    12920 1
    4788    11083    11084 1
    4789    13162    13163 1
    4790     7924     7925 1
    4791    11245    11246 1
    4792     1982     1983 1
    4793     2318     2319 1
    4794    10861    10863 1
    4795     1632     1633 1
    4796     7621     7623 1
    4797     8596     8597 1
    4798    11872    11874 1
    4799    13627    13629 1
    4800    10387    10389 1
    4801    14059    14061 1
    4802     1978     1979 1
    4803    12304    12306 1
    4804    12142    12144 1
    4805    11710    11712 1
    4806     8902     8904 1
    4807     8470     8472 1
    4808     8404     8405 1
    4809    13081    13082 1
    4810     1472     1473 1
    4811    10180    10182 1
    4812     4181     4182 1
    4813    11104    11105 1
    4814     4661     4662 1
    4815     9916     9917 1
    4816     5621     5622 1
    4817     1460     1462 1
    4818     1136     1138 1
    4819      750      751 1
    4820     2037     2038 1
    4821      537      538 1
    4822     2256     2257 1
    4823     2910     2911 1
    4824     2586     2587 1
    4825     3842     3843 1
    4826     3518     3519 1
    4827     9586     9588 1
    4828      953      954 1
    4829    14320    14322 1
    4830     4122     4123 1
    4831     2334     2335 1
    4832      498      499 1
    4833      339      341 1
    4834      373      374 1
    4835     1123     1124 1
    4836      156      157 1
    4837      907      908 1
    4838     3172     3173 1
    4839     2854     2855 1
    4840     2209     2210 1
    4841     2959     2960 1
    4842     9412     9413 1
    4843    12463    12464 1
    4844     9853     9854 1
    4845     5496     5497 1
    4846     3660     3661 1
    4847     4896     4898 1
    4848     2746     2747 1
    4849     1790     1793 1
    4850    13861    13862 1
    4851     8704     8705 1
    4852      637      638 1
    4853     2502     2503 1
    4854     6869     6870 1
    4855     2736     2738 1
    4856     6476     6477 1
    4857      736      715 1
    4858     4529     4530 1
    4859     2572     2551 1
    4860     4640     4641 1
    4861    12508    12510 1
    4862    10336    10338 1
    4863     1654     1633 1
    4864     7351     7353 1
    4865      624      623 1
    4866      483      484 1
    4867     3282     3283 1
    4868     1335     1336 1
    4869     7156     7158 1
    4870      372      373 1
    4871     2208     2209 1
    4872    13984    13986 1
    4873     2368     2369 1
    4874      754      755 1
    4875     2590     2591 1
    4876     1825     1826 1
    4877      418      419 1
    4878     2254     2255 1
    4879     1160     1161 1
    4880     2479     2480 1
    4881     1687     1688 1
    4882     6179     6180 1
    4883     3200     3201 1
    4884     4645     4648 1
    4885     5058     5060 1
    4886     3546     3548 1
    4887      151      152 1
    4888     2306     2307 1
    4889     3293     3294 1
    4890      914      915 1
    4891    13024    13026 1
    4892     3062     3063 1
    4893     5253     5254 1
    4894     3464     3465 1
    4895     5299     5300 1
    4896     8713     8715 1
    4897      860      861 1
    4898     9451     9453 1
    4899    12355    12357 1
    4900    10798    10800 1
    4901    12802    12804 1
    4902     9847     9849 1
    4903    10309    10311 1
    4904     4598     4601 1
    4905     9688     9689 1
    4906    12307    12308 1
    4907     8905     8906 1
    4908    14062    14063 1
    4909    13225    13226 1
    4910    12145    12146 1
    4911     9823     9824 1
    4912     7744     7745 1
    4913    13687    13689 1
    4914      704      706 1
    4915    12262    12263 1
    4916    10507    10508 1
    4917    12343    12344 1
    4918     5516     5517 1
    4919    14422    14423 1
    4920    14260    14261 1
    4921     1179     1180 1
    4922      900      901 1
    4923     3168     3169 1
    4924     7066     7067 1
    4925     4486     4487 1
    4926     3053     3054 1
    4927     6691     6692 1
    4928     6126     6127 1
    4929     3417     3418 1
    4930     1581     1582 1
    4931     6164     6167 1
    4932     4328     4331 1
    4933     8794     8795 1
    4934     8362     8363 1
    4935     9199     9200 1
    4936    12277    12278 1
    4937    12034    12035 1
    4938    13357    13358 1
    4939    10117    10118 1
    4940     8632     8633 1
    4941     7150     7151 1
    4942     2898     2899 1
    4943     1310     1311 1
    4944     7054     7055 1
    4945     3146     3147 1
    4946      446      447 1
    4947     2034     2035 1
    4948     2745     2746 1
    4949     4974     4975 1
    4950      978      979 1
    4951     2814     2815 1
    4952     7414     7416 1
    4953     7999     8001 1
    4954    13156    13158 1
    4955     6188     6189 1
    4956     2667     2668 1
    4957      720      721 1
    4958     2556     2557 1
    4959     4334     4335 1
    4960     3731     3732 1
    4961     6755     6756 1
    4962     5717     5718 1
    4963     3656     3657 1
    4964    13954    13956 1
    4965     3963     3962 1
    4966     3167     3168 1
    4967     5487     5486 1
    4968     1331     1332 1
    4969     1439     1440 1
    4970    10828    10830 1
    4971     3651     3650 1
    4972     4368     4369 1
    4973     6204     6205 1
    4974      929      930 1
    4975     4479     4480 1
    4976     2765     2766 1
    4977     4011     4013 1
    4978     5847     5849 1
    4979     4443     4445 1
    4980    10600    10602 1
    4981     9019     9021 1
    4982     5698     5699 1
    4983     7030     7032 1
    4984     4075     4076 1
    4985     4837     4838 1
    4986     8650     8651 1
    4987     2107     2110 1
    4988      440      442 1
    4989     2276     2278 1
    4990     3216     3215 1
    4991     8530     8531 1
    4992    13864    13865 1
    4993     8707     8708 1
    4994     7546     7547 1
    4995    12865    12866 1
    4996    10948    10949 1
    4997     7870     7871 1
    4998    11785    11786 1
    4999     8383     8384 1
    5000     7708     7709 1
    5001    12412    12414 1
    5002      215      216 1
    5003     8443     8445 1
    5004     8833     8834 1
    5005    10420    10422 1
    5006     1764     1766 1
    5007     1608     1609 1
    5008     2481     2482 1
    5009     3380     3381 1
    5010     1433     1434 1
    5011      671      672 1
    5012     2507     2508 1
    5013     8539     8540 1
    5014    10939    10940 1
    5015    13018    13019 1
    5016     7861     7862 1
    5017    10462    10464 1
    5018     8233     8235 1
    5019     4410     4411 1
    5020    11125    11126 1
    5021     2438     2440 1
    5022      602      604 1
    5023     5423     5424 1
    5024     1466     1468 1
    5025    10468    10469 1
    5026     1717     1718 1
    5027     7000     7001 1
    5028     1133     1134 1
    5029     9970     9971 1
    5030    13912    13913 1
    5031    13750    13751 1
    5032     7057     7059 1
    5033     8029     8030 1
    5034    13615    13616 1
    5035    11293    11294 1
    5036    11833    11834 1
    5037     8407     8408 1
    5038    10918    10919 1
    5039     5354     5356 1
    5040    11623    11625 1
    5041    11812    11814 1
    5042    13405    13407 1
    5043    11461    11463 1
    5044      202      203 1
    5045    13891    13893 1
    5046     8221     8223 1
    5047    13702    13704 1
    5048    11953    11955 1
    5049    13729    13731 1
    5050    12193    12194 1
    5051      753      754 1
    5052     9331     9332 1
    5053     2511     2512 1
    5054      675      676 1
    5055     4335     4336 1
    5056     6221     6222 1
    5057     4385     4386 1
    5058     1924     1903 1
    5059    11902    11904 1
    5060     1075     1076 1
    5061     3589     3588 1
    5062     5425     5424 1
    5063     1520     1523 1
    5064     2924     2927 1
    5065     3356     3359 1
    5066    13132    13134 1
    5067     1147     1146 1
    5068     2215     2218 1
    5069    14572    14573 1
    5070     5274     5276 1
    5071    13966    13967 1
    5072    13381    13383 1
    5073     3384     3385 1
    5074    10165    10167 1
    5075     8653     8655 1
    5076     1796     1797 1
    5077     5042     5043 1
    5078     6878     6879 1
    5079    14263    14265 1
    5080     9001     9003 1
    5081     8974     8975 1
    5082    12805    12806 1
    5083    10726    10727 1
    5084     1778     1777 1
    5085    11941    11942 1
    5086     4001     4002 1
    5087     4432     4433 1
    5088    12982    12983 1
    5089     1004     1005 1
    5090      242      243 1
    5091     3152     3153 1
    5092     4620     4621 1
    5093     4506     4507 1
    5094     6342     6343 1
    5095     6453     6454 1
    5096     4398     4399 1
    5097     4509     4510 1
    5098     6120     6121 1
    5099     4284     4285 1
    5100     5043     5044 1
    5101     6345     6346 1
    5102     9271     9272 1
    5103     2596     2594 1
    5104      760      758 1
    5105    14533    14534 1
    5106     9829     9831 1
    5107     6352     6353 1
    5108     4192     4193 1
    5109     5704     5705 1
    5110     6028     6029 1
    5111    12016    12017 1
    5112     4516     4517 1
    5113     1771     1772 1
    5114     1471     1472 1
    5115     8158     8159 1
    5116     3254     3255 1
    5117     1418     1419 1
    5118     3006     3007 1
    5119     1170     1171 1
    5120     5172     5173 1
    5121     5385     5386 1
    5122     1410     1411 1
    5123     1302     1303 1
    5124       38       39 1
    5125    11734    11736 1
    5126     1558     1559 1
    5127     2751     2752 1
    5128     3246     3247 1
    5129     2379     2380 1
    5130     7756     7758 1
    5131     8542     8544 1
    5132     7867     7868 1
    5133     8755     8756 1
    5134      515      516 1
    5135     9901     9903 1
    5136     4042     4043 1
    5137     5878     5879 1
    5138     4909     4910 1
    5139     5954     5955 1
    5140    10045    10046 1
    5141     1546     1525 1
    5142     6386     6387 1
    5143    11221    11222 1
    5144     8503     8504 1
    5145    13099    13101 1
    5146    12937    12939 1
    5147    11101    11103 1
    5148    13342    13344 1
    5149    13180    13182 1
    5150     6164     6166 1
    5151     7942     7944 1
    5152     4328     4330 1
    5153     9940     9942 1
    5154     7141     7143 1
    5155     5343     5344 1
    5156     5007     5008 1
    5157     6843     6844 1
    5158     5232     5233 1
    5159     5118     5119 1
    5160    13339    13341 1
    5161      436      433 1
    5162     2272     2269 1
    5163     7567     7568 1
    5164      306      308 1
    5165     2790     2792 1
    5166      879      880 1
    5167     2761     2762 1
    5168     3910     3911 1
    5169     6397     6398 1
    5170     2142     2144 1
    5171     2875     2876 1
    5172     2715     2716 1
    5173     4561     4562 1
    5174     1039     1040 1
    5175     3799     3800 1
    5176     5635     5636 1
    5177     9427     9428 1
    5178      853      854 1
    5179    10780    10782 1
    5180     4251     4252 1
    5181    11335    11336 1
    5182     5147     5148 1
    5183     5258     5259 1
    5184    11080    11082 1
    5185      365      364 1
    5186     4194     4195 1
    5187     7549     7550 1
    5188     8161     8162 1
    5189     7348     7349 1
    5190     3680     3681 1
    5191    10978    10979 1
    5192     2233     2234 1
    5193     8710     8712 1
    5194    13867    13869 1
    5195    10915    10917 1
    5196     9592     9594 1
    5197    10480    10481 1
    5198     5823     5822 1
    5199     4356     4357 1
    5200     6440     6441 1
    5201     4064     4065 1
    5202     5900     5901 1
    5203     3816     3817 1
    5204     2391     2393 1
    5205      599      598 1
    5206     5704     5683 1
    5207     6028     6007 1
    5208     6495     6496 1
    5209     6493     6494 1
    5210     4705     4706 1
    5211     3577     3578 1
    5212     4659     4660 1
    5213     4938     4939 1
    5214      646      647 1
    5215     2584     2583 1
    5216      748      747 1
    5217     5754     5755 1
    5218     2806     2807 1
    5219     2695     2696 1
    5220      970      971 1
    5221     1609     1610 1
    5222     3118     3119 1
    5223     1831     1832 1
    5224      287      288 1
    5225     2123     2124 1
    5226      564      563 1
    5227      836      837 1
    5228     2400     2399 1
    5229     4544     4545 1
    5230     1049     1050 1
    5231     2238     2237 1
    5232      413      412 1
    5233     5166     5168 1
    5234     2849     2850 1
    5235     1013     1014 1
    5236     9970     9972 1
    5237     6163     6164 1
    5238     4327     4328 1
    5239     4281     4282 1
    5240     1891     1894 1
    5241     1943     1944 1
    5242     3443     3444 1
    5243     7606     7607 1
    5244     3230     3231 1
    5245    10846    10847 1
    5246     5270     5271 1
    5247     3635     3636 1
    5248     5483     5484 1
    5249     4934     4935 1
    5250     3647     3648 1
    5251     3035     3036 1
    5252     9529     9531 1
    5253     6159     6160 1
    5254     2378     2380 1
    5255    10078    10080 1
    5256     5405     5406 1
    5257    13564    13565 1
    5258    10324    10325 1
    5259    14317    14318 1
    5260     9241     9243 1
    5261     4324     4325 1
    5262     6160     6161 1
    5263    11128    11129 1
    5264     8131     8132 1
    5265     8374     8375 1
    5266     5732     5733 1
    5267    10129    10130 1
    5268    13045    13046 1
    5269    10210    10211 1
    5270     5192     5193 1
    5271     2444     2445 1
    5272     9643     9644 1
    5273     3123     3124 1
    5274     3528     3529 1
    5275     9328     9329 1
    5276      761      762 1
    5277    11230    11231 1
    5278     5646     5647 1
    5279     2442     2443 1
    5280     4256     4257 1
    5281     5981     5982 1
    5282     6641     6642 1
    5283      606      607 1
    5284     6092     6093 1
    5285     4145     4146 1
    5286     4805     4806 1
    5287     9748     9750 1
    5288     4694     4695 1
    5289     4112     4115 1
    5290     8137     8138 1
    5291     4704     4703 1
    5292    11413    11414 1
    5293    13843    13844 1
    5294     8848     8849 1
    5295    14005    14006 1
    5296    13573    13574 1
    5297     8416     8417 1
    5298    13492    13493 1
    5299    11656    11657 1
    5300    10333    10334 1
    5301    10252    10253 1
    5302     8263     8265 1
    5303     5169     5170 1
    5304    12733    12735 1
    5305     1839     1840 1
    5306    11701    11703 1
    5307     4372     4373 1
    5308     4579     4580 1
    5309     6415     6416 1
    5310     1317     1318 1
    5311      243      244 1
    5312     5341     5342 1
    5313     5027     5028 1
    5314     3328     3307 1
    5315     1492     1471 1
    5316    12523    12525 1
    5317     4871     4872 1
    5318     3275     3276 1
    5319     8524     8526 1
    5320    13948    13950 1
    5321    11071    11073 1
    5322     2758     2756 1
    5323     6374     6376 1
    5324     3218     3219 1
    5325      833      834 1
    5326     1694     1695 1
    5327     2119     2120 1
    5328     1743     1744 1
    5329     8317     8318 1
    5330    10234    10235 1
    5331    13474    13475 1
    5332     4950     4951 1
    5333     9898     9899 1
    5334    12475    12476 1
    5335    10558    10559 1
    5336     9073     9074 1
    5337     9397     9398 1
    5338     1149     1151 1
    5339    12382    12383 1
    5340     9841     9842 1
    5341     7762     7763 1
    5342    10921    10922 1
    5343    11164    11165 1
    5344    13000    13001 1
    5345     7843     7844 1
    5346     9760     9761 1
    5347     7675     7677 1
    5348    10753    10755 1
    5349     9679     9680 1
    5350    10267    10268 1
    5351     1588     1589 1
    5352      514      515 1
    5353     1921     1922 1
    5354     2350     2351 1
    5355      397      398 1
    5356      403      404 1
    5357     1829     1830 1
    5358     3452     3453 1
    5359     1616     1617 1
    5360      167      168 1
    5361     8578     8580 1
    5362     3854     3855 1
    5363     4616     4617 1
    5364     8191     8193 1
    5365      304      305 1
    5366     3359     3360 1
    5367     5963     5964 1
    5368    11824    11826 1
    5369    13036    13037 1
    5370     1401     1402 1
    5371     3015     3016 1
    5372     2516     2517 1
    5373     2717     2718 1
    5374      881      882 1
    5375     1100     1101 1
    5376     1106     1107 1
    5377     1217     1218 1
    5378      788      789 1
    5379     3514     3515 1
    5380     2723     2724 1
    5381     2186     2187 1
    5382    13432    13433 1
    5383     5350     5351 1
    5384     9088     9090 1
    5385    14284    14286 1
    5386     8386     8388 1
    5387    12247    12249 1
    5388    14164    14166 1
    5389    12031    12033 1
    5390     8791     8793 1
    5391     7831     7833 1
    5392    12286    12288 1
    5393    10990    10992 1
    5394     3710     3711 1
    5395     5009     5010 1
    5396     5546     5547 1
    5397     1038     1039 1
    5398     6845     6846 1
    5399    12649    12651 1
    5400    14041    14042 1
    5401     9175     9177 1
    5402    11419    11420 1
    5403     3410     3412 1
    5404     1574     1576 1
    5405     9415     9416 1
    5406     7720     7721 1
    5407     7747     7748 1
    5408    12958    12959 1
    5409    13228    13229 1
    5410     2703     2704 1
    5411     7990     7991 1
    5412     9718     9719 1
    5413     9745     9746 1
    5414     7639     7640 1
    5415    10960    10961 1
    5416    12433    12435 1
    5417     4261     4262 1
    5418     6097     6098 1
    5419     3264     3265 1
    5420     1428     1429 1
    5421    14122    14123 1
    5422      666      667 1
    5423     2190     2191 1
    5424    11470    11471 1
    5425    13120    13121 1
    5426    14449    14451 1
    5427     2313     2314 1
    5428     3361     3362 1
    5429     1525     1526 1
    5430    10489    10491 1
    5431     4081     4082 1
    5432     3745     3746 1
    5433     6235     6236 1
    5434     5581     5582 1
    5435     3970     3971 1
    5436     3748     3749 1
    5437     8908     8910 1
    5438    14065    14067 1
    5439    13876    13878 1
    5440    12310    12312 1
    5441    12148    12150 1
    5442     8395     8397 1
    5443    14338    14340 1
    5444     6824     6825 1
    5445    11797    11799 1
    5446     8719     8721 1
    5447     3976     3955 1
    5448     9985     9987 1
    5449     7678     7679 1
    5450     2388     2387 1
    5451    11122    11123 1
    5452      552      551 1
    5453    12022    12023 1
    5454      527      528 1
    5455      637      636 1
    5456     4832     4833 1
    5457     3758     3759 1
    5458     3959     3960 1
    5459     9067     9069 1
    5460     3842     3845 1
    5461     3518     3521 1
    5462     9310     9311 1
    5463    14224    14225 1
    5464     8068     8069 1
    5465    14386    14387 1
    5466     8554     8555 1
    5467     4605     4607 1
    5468     5239     5242 1
    5469     6809     6810 1
    5470    10729    10731 1
    5471     9472     9473 1
    5472    11590    11591 1
    5473     9028     9030 1
    5474    12589    12591 1
    5475     8947     8949 1
    5476    14104    14106 1
    5477     9349     9351 1
    5478     5729     5730 1
    5479    10459    10460 1
    5480    12496    12497 1
    5481     2069     2070 1
    5482     3371     3372 1
    5483    11407    11408 1
    5484     7339     7340 1
    5485     9283     9284 1
    5486     4182     4183 1
    5487     6768     6769 1
    5488     6802     6803 1
    5489     6142     6143 1
    5490     4932     4933 1
    5491    13366    13368 1
    5492     4417     4418 1
    5493     6018     6019 1
    5494     6253     6254 1
    5495     4071     4072 1
    5496     6192     6194 1
    5497    10675    10676 1
    5498     4052     4054 1
    5499     4278     4279 1
    5500     6654     6655 1
    5501     4170     4171 1
    5502     5561     5560 1
    5503     3725     3724 1
    5504     4031     4032 1
    5505     5867     5868 1
    5506    11728    11729 1
    5507     6167     6168 1
    5508     4331     4332 1
    5509     6707     6708 1
    5510     4359     4358 1
    5511     4047     4046 1
    5512     1626     1627 1
    5513     1552     1553 1
    5514      114      115 1
    5515      327      328 1
    5516     7003     7004 1
    5517     6576     6577 1
    5518     6272     6274 1
    5519     8146     8148 1
    5520     6853     6854 1
    5521     5980     5981 1
    5522     4144     4145 1
    5523     1755     1756 1
    5524     5017     5018 1
    5525     3467     3468 1
    5526     4856     4857 1
    5527     6473     6474 1
    5528     4637     4638 1
    5529     6581     6582 1
    5530     9988     9989 1
    5531     4112     4114 1
    5532     8725     8727 1
    5533    12316    12318 1
    5534    14071    14073 1
    5535    12154    12156 1
    5536    13882    13884 1
    5537     8401     8403 1
    5538    11803    11805 1
    5539     6394     6393 1
    5540     4558     4557 1
    5541     6315     6316 1
    5542     3717     3718 1
    5543     4791     4792 1
    5544     5913     5914 1
    5545     5664     5665 1
    5546     5553     5554 1
    5547     3606     3607 1
    5548     5442     5443 1
    5549     7192     7194 1
    5550     3903     3905 1
    5551     6952     6954 1
    5552     5739     5741 1
    5553     3964     3965 1
    5554     6673     6674 1
    5555     5188     5185 1
    5556    10141    10142 1
    5557     4321     4324 1
    5558    10111    10112 1
    5559     8356     8357 1
    5560     9193     9194 1
    5561    13027    13028 1
    5562    12271    12272 1
    5563    13351    13352 1
    5564    11110    11111 1
    5565    10678    10679 1
    5566    13513    13514 1
    5567     7276     7277 1
    5568      269      270 1
    5569     6344     6343 1
    5570    11332    11334 1
    5571     1034     1035 1
    5572     1142     1143 1
    5573     2978     2979 1
    5574     5945     5944 1
    5575      875      876 1
    5576    13528    13529 1
    5577    10255    10256 1
    5578     7189     7190 1
    5579     2073     2074 1
    5580    12784    12786 1
    5581     8575     8576 1
    5582    12880    12881 1
    5583     2056     2057 1
    5584     8629     8631 1
    5585     6192     6193 1
    5586     4604     4605 1
    5587     2419     2420 1
    5588     1234     1235 1
    5589     3070     3071 1
    5590     1882     1883 1
    5591     3181     3182 1
    5592     3471     3472 1
    5593    11059    11060 1
    5594     5488     5467 1
    5595     7183     7184 1
    5596      386      389 1
    5597     2222     2225 1
    5598     2330     2333 1
    5599      494      497 1
    5600     7837     7838 1
    5601     8785     8786 1
    5602    10486    10487 1
    5603    12994    12995 1
    5604    14302    14304 1
    5605     6196     6197 1
    5606     3604     3605 1
    5607      137      138 1
    5608     5227     5228 1
    5609     3150     3151 1
    5610     2685     2686 1
    5611     5440     5441 1
    5612     6786     6787 1
    5613    10228    10229 1
    5614     5135     5136 1
    5615     2199     2200 1
    5616     2631     2632 1
    5617      363      364 1
    5618    13327    13328 1
    5619     1088     1091 1
    5620     2231     2232 1
    5621      391      392 1
    5622    11452    11453 1
    5623     4241     4242 1
    5624    10591    10592 1
    5625     4508     4507 1
    5626     5515     5516 1
    5627     2776     2777 1
    5628     3633     3634 1
    5629     7315     7316 1
    5630    12415    12416 1
    5631    14002    14004 1
    5632     8566     8567 1
    5633      632      633 1
    5634      275      276 1
    5635     2111     2112 1
    5636     2435     2436 1
    5637     9724     9725 1
    5638     7165     7166 1
    5639     3112     3113 1
    5640     4234     4235 1
    5641     6657     6659 1
    5642     9127     9128 1
    5643    14293    14295 1
    5644    11353    11354 1
    5645     3168     3170 1
    5646    12370    12371 1
    5647     7090     7091 1
    5648    11371    11372 1
    5649     2864     2866 1
    5650     7969     7970 1
    5651    14125    14126 1
    5652    10048    10049 1
    5653    13288    13289 1
    5654     1332     1334 1
    5655    12811    12812 1
    5656    14296    14298 1
    5657     4636     4637 1
    5658     6472     6473 1
    5659     4525     4526 1
    5660     6361     6362 1
    5661     3475     3476 1
    5662     6510     6511 1
    5663     1087     1088 1
    5664     1041     1042 1
    5665     4563     4564 1
    5666     6828     6829 1
    5667     2877     2878 1
    5668     2672     2673 1
    5669     3680     3683 1
    5670     7471     7472 1
    5671    10873    10874 1
    5672    12790    12791 1
    5673    10711    10712 1
    5674    14545    14546 1
    5675     9550     9551 1
    5676     5272     5251 1
    5677     9307     9308 1
    5678     2174     2175 1
    5679    12709    12710 1
    5680    13411    13412 1
    5681     6702     6703 1
    5682     1842     1843 1
    5683     7648     7650 1
    5684     1412     1413 1
    5685     3248     3249 1
    5686    11755    11757 1
    5687     1293     1292 1
    5688      537      536 1
    5689     9580     9582 1
    5690     6735     6736 1
    5691     4899     4900 1
    5692     6531     6532 1
    5693     6198     6199 1
    5694     2856     2855 1
    5695     4695     4696 1
    5696     3541     3542 1
    5697     4615     4616 1
    5698     6590     6592 1
    5699     4754     4756 1
    5700    12673    12675 1
    5701    11239    11240 1
    5702      954      956 1
    5703     3695     3696 1
    5704     3222     3224 1
    5705     1386     1388 1
    5706     5208     5209 1
    5707     1304     1306 1
    5708     7735     7736 1
    5709     9733     9734 1
    5710    11218    11219 1
    5711     7978     7979 1
    5712    13216    13217 1
    5713     4226     4227 1
    5714     9814     9815 1
    5715    12373    12375 1
    5716     5110     5111 1
    5717     9532     9533 1
    5718     5153     5152 1
    5719     3577     3576 1
    5720     3011     3012 1
    5721     1937     1938 1
    5722     1175     1176 1
    5723     4511     4512 1
    5724     6347     6348 1
    5725     9187     9188 1
    5726    12592    12593 1
    5727     2975     2976 1
    5728     6606     6605 1
    5729     5827     5828 1
    5730     5295     5296 1
    5731     3134     3136 1
    5732    10567    10568 1
    5733     4649     4650 1
    5734      792      794 1
    5735     2628     2630 1
    5736    14149    14150 1
    5737    12787    12788 1
    5738     2747     2748 1
    5739     2921     2922 1
    5740      845      846 1
    5741     6743     6744 1
    5742     5076     5075 1
    5743     3489     3488 1
    5744     5601     5600 1
    5745     3765     3764 1
    5746     6912     6911 1
    5747    10624    10626 1
    5748    14458    14460 1
    5749    10816    10817 1
    5750    10768    10770 1
    5751    10258    10259 1
    5752     4889     4890 1
    5753    13693    13694 1
    5754     5277     5278 1
    5755     5394     5395 1
    5756     4632     4633 1
    5757    10564    10565 1
    5758    12727    12728 1
    5759    10810    10811 1
    5760     7570     7571 1
    5761    14209    14210 1
    5762    10648    10649 1
    5763     9649     9650 1
    5764    11131    11132 1
    5765     7408     7409 1
    5766    13402    13403 1
    5767     5570     5572 1
    5768     3734     3736 1
    5769     2220     2221 1
    5770      384      385 1
    5771     9103     9104 1
    5772     9424     9425 1
    5773     5930     5931 1
    5774     5351     5352 1
    5775     1168     1147 1
    5776    10837    10839 1
    5777     7597     7599 1
    5778     1747     1748 1
    5779    11032    11034 1
    5780     3271     3272 1
    5781     1435     1436 1
    5782      673      674 1
    5783     1324     1325 1
    5784    10018    10019 1
    5785     2535     2536 1
    5786      129      130 1
    5787     4420     4419 1
    5788     6367     6366 1
    5789    14242    14244 1
    5790     9565     9567 1
    5791     7486     7488 1
    5792    13969    13971 1
    5793     3556     3557 1
    5794     7261     7263 1
    5795    14497    14499 1
    5796     7774     7776 1
    5797     4778     4779 1
    5798     9340     9342 1
    5799     3704     3705 1
    5800     7855     7857 1
    5801    11176    11178 1
    5802    13012    13014 1
    5803    12499    12501 1
    5804     9100     9102 1
    5805     7453     7455 1
    5806    14527    14529 1
    5807    12340    12342 1
    5808     9772     9774 1
    5809     1997     1998 1
    5810     7342     7344 1
    5811     7381     7383 1
    5812    14398    14400 1
    5813     1438     1439 1
    5814     8062     8064 1
    5815     1508     1509 1
    5816     2582     2583 1
    5817      746      747 1
    5818    11215    11216 1
    5819     8449     8451 1
    5820     3803     3804 1
    5821     6859     6862 1
    5822     4375     4378 1
    5823     3619     3622 1
    5824    13723    13725 1
    5825    11161    11162 1
    5826    12295    12297 1
    5827     7732     7734 1
    5828     9322     9324 1
    5829    12133    12135 1
    5830    14050    14052 1
    5831    12724    12726 1
    5832     8893     8895 1
    5833    13213    13215 1
    5834      458      459 1
    5835    10687    10688 1
    5836      245      246 1
    5837     6561     6562 1
    5838     5799     5800 1
    5839     4074     4075 1
    5840     4836     4837 1
    5841     3852     3853 1
    5842     4725     4726 1
    5843     2753     2754 1
    5844       12       11 1
    5845     2722     2721 1
    5846       88       67 1
    5847     5129     5130 1
    5848     5654     5655 1
    5849     3064     3065 1
    5850      916      917 1
    5851     1990     1991 1
    5852     8242     8243 1
    5853    10135    10136 1
    5854     3840     3841 1
    5855     3405     3406 1
    5856     6141     6142 1
    5857     4416     4417 1
    5858    12463    12465 1
    5859     9412     9414 1
    5860     1736     1737 1
    5861     9178     9179 1
    5862     3425     3426 1
    5863     4906     4907 1
    5864     6742     6743 1
    5865     3832     3833 1
    5866     5668     5669 1
    5867      110      112 1
    5868      888      889 1
    5869     5714     5715 1
    5870     4535     4536 1
    5871     3878     3879 1
    5872     6371     6372 1
    5873    10186    10188 1
    5874     8152     8153 1
    5875    14503    14505 1
    5876     7267     7269 1
    5877     7834     7836 1
    5878     9346     9348 1
    5879    10993    10995 1
    5880    10912    10914 1
    5881     1438     1417 1
    5882     6949     6951 1
    5883    13072    13074 1
    5884    12586    12588 1
    5885     6170     6171 1
    5886     7429     7430 1
    5887      497      498 1
    5888     2333     2334 1
    5889    12166    12167 1
    5890     3602     3600 1
    5891     3643     3644 1
    5892     2898     2900 1
    5893     2034     2036 1
    5894     2227     2228 1
    5895     4885     4886 1
    5896     5968     5969 1
    5897     3811     3812 1
    5898     5206     5207 1
    5899     1380     1379 1
    5900       74       73 1
    5901     5536     5537 1
    5902     4663     4664 1
    5903     1692     1691 1
    5904     4132     4133 1
    5905     1905     1907 1
    5906     2460     2459 1
    5907    11023    11025 1
    5908    13951    13953 1
    5909    13789    13791 1
    5910     8227     8229 1
    5911    11629    11631 1
    5912    10306    10308 1
    5913    12196    12198 1
    5914    13411    13413 1
    5915     8686     8687 1
    5916    13897    13899 1
    5917     7822     7824 1
    5918    12979    12981 1
    5919    10342    10344 1
    5920     5997     5998 1
    5921     3743     3744 1
    5922     6452     6453 1
    5923    13066    13067 1
    5924     6888     6889 1
    5925     7585     7587 1
    5926     5469     5471 1
    5927    11329    11330 1
    5928    10126    10127 1
    5929    13399    13400 1
    5930     3569     3570 1
    5931      741      742 1
    5932     2802     2803 1
    5933     9463     9465 1
    5934     3097     3098 1
    5935     1909     1910 1
    5936     4382     4383 1
    5937     6218     6219 1
    5938     5100     5101 1
    5939    13852    13854 1
    5940    12841    12843 1
    5941     8857     8859 1
    5942    11005    11007 1
    5943     9601     9603 1
    5944     4455     4456 1
    5945     8695     8697 1
    5946    14014    14016 1
    5947     7603     7605 1
    5948     7240     7241 1
    5949    13033    13034 1
    5950     5868     5870 1
    5951     4032     4034 1
    5952     6387     6388 1
    5953     4921     4922 1
    5954     5521     5522 1
    5955     5845     5846 1
    5956     4009     4010 1
    5957     6757     6758 1
    5958      278      281 1
    5959    13162    13164 1
    5960     1896     1897 1
    5961      207      208 1
    5962    11083    11085 1
    5963     7924     7926 1
    5964    12919    12921 1
    5965    13324    13326 1
    5966      642      643 1
    5967    11818    11820 1
    5968    11245    11247 1
    5969    12115    12117 1
    5970    13096    13097 1
    5971    13570    13572 1
    5972      183      184 1
    5973      149      150 1
    5974     5536     5535 1
    5975     3913     3912 1
    5976     5749     5748 1
    5977     8182     8183 1
    5978     3700     3699 1
    5979     6934     6935 1
    5980      503      504 1
    5981     5760     5761 1
    5982      994      995 1
    5983     3781     3784 1
    5984     1912     1913 1
    5985    13777    13779 1
    5986      228      227 1
    5987     5191     5192 1
    5988     5145     5146 1
    5989     7330     7332 1
    5990     7132     7133 1
    5991    12502    12504 1
    5992     6017     6018 1
    5993     4943     4944 1
    5994     4070     4071 1
    5995     6779     6780 1
    5996     6930     6928 1
    5997    10309    10310 1
    5998     8230     8231 1
    5999    12901    12902 1
    6000     1847     1848 1
    6001    12550    12551 1
    6002     9499     9500 1
    6003    14467    14468 1
    6004    11632    11633 1
    6005     7393     7394 1
    6006    11821    11822 1
    6007     9217     9218 1
    6008     3633     3635 1
    6009    12997    12998 1
    6010    13282    13284 1
    6011     4952     4953 1
    6012    11809    11811 1
    6013     7186     7187 1
    6014    12100    12101 1
    6015     4976     4977 1
    6016     1976     1977 1
    6017     9184     9185 1
    6018     9022     9023 1
    6019     2177     2178 1
    6020     8482     8483 1
    6021    11722    11723 1
    6022    13054    13055 1
    6023     5719     5720 1
    6024     4633     4634 1
    6025     6469     6470 1
    6026     3772     3773 1
    6027     6358     6359 1
    6028     2275     2276 1
    6029      439      440 1
    6030     2229     2230 1
    6031     8641     8643 1
    6032     5762     5763 1
    6033     5561     5562 1
    6034     4747     4748 1
    6035    12481    12482 1
    6036     7324     7325 1
    6037     1461     1462 1
    6038     3297     3298 1
    6039      628      629 1
    6040    12808    12810 1
    6041     3607     3608 1
    6042     5554     5555 1
    6043      993      994 1
    6044     2829     2830 1
    6045     1803     1804 1
    6046     2988     2989 1
    6047     1152     1153 1
    6048      840      841 1
    6049     1914     1915 1
    6050     2565     2566 1
    6051     4169     4170 1
    6052     9331     9333 1
    6053     7024     7026 1
    6054     5307     5309 1
    6055    12598    12600 1
    6056     9181     9183 1
    6057     7441     7443 1
    6058    14524    14525 1
    6059    12781    12782 1
    6060     1170     1172 1
    6061     3006     3008 1
    6062     5154     5155 1
    6063     2758     2755 1
    6064     6589     6592 1
    6065     4753     4756 1
    6066     1334     1335 1
    6067     2207     2208 1
    6068     2969     2970 1
    6069    13942    13944 1
    6070      371      372 1
    6071    10069    10070 1
    6072     2452     2453 1
    6073     3058     3059 1
    6074     1378     1379 1
    6075      616      617 1
    6076       72       73 1
    6077      790      791 1
    6078     2626     2627 1
    6079      505      506 1
    6080    14572    14574 1
    6081     9814     9816 1
    6082     8665     8666 1
    6083    11149    11151 1
    6084     7909     7911 1
    6085     9430     9431 1
    6086      922      923 1
    6087     5296     5297 1
    6088     2974     2975 1
    6089     2469     2470 1
    6090     2697     2698 1
    6091     1973     1974 1
    6092     1211     1212 1
    6093     3231     3232 1
    6094     2758     2759 1
    6095    14542    14543 1
    6096    12070    12071 1
    6097     5890     5891 1
    6098     3906     3907 1
    6099     5853     5854 1
    6100     4017     4018 1
    6101     4667     4668 1
    6102    13705    13706 1
    6103     2485     2488 1
    6104    12013    12014 1
    6105    12016    12018 1
    6106      744      745 1
    6107     7717     7719 1
    6108     1244     1246 1
    6109     8773     8774 1
    6110    13453    13454 1
    6111     8134     8135 1
    6112     8002     8003 1
    6113     9703     9704 1
    6114    12943    12944 1
    6115     7624     7625 1
    6116     8164     8165 1
    6117    10081    10082 1
    6118    12985    12987 1
    6119     3625     3626 1
    6120    10948    10950 1
    6121    12865    12867 1
    6122     8707     8709 1
    6123    13864    13866 1
    6124     8158     8160 1
    6125     7870     7872 1
    6126     6307     6308 1
    6127    11785    11787 1
    6128     1326     1327 1
    6129     2868     2867 1
    6130     1032     1031 1
    6131    12490    12491 1
    6132     4471     4472 1
    6133     7333     7334 1
    6134     2464     2443 1
    6135     3220     3199 1
    6136     1384     1363 1
    6137    12436    12437 1
    6138    10732    10733 1
    6139     1870     1849 1
    6140     2719     2720 1
    6141     1531     1532 1
    6142     1219     1220 1
    6143    10045    10047 1
    6144     6727     6726 1
    6145      883      884 1
    6146     1989     1988 1
    6147    11221    11223 1
    6148    11257    11259 1
    6149     9934     9936 1
    6150     2243     2244 1
    6151    13174    13176 1
    6152     6677     6676 1
    6153    12931    12933 1
    6154      395      396 1
    6155     2030     2031 1
    6156     1481     1482 1
    6157     3317     3318 1
    6158      794      795 1
    6159     4734     4735 1
    6160    14236    14238 1
    6161    11404    11406 1
    6162     9433     9434 1
    6163     5798     5797 1
    6164     6566     6565 1
    6165     4619     4618 1
    6166     2255     2256 1
    6167    10765    10766 1
    6168     8605     8606 1
    6169    14452    14454 1
    6170      203      204 1
    6171     7312     7314 1
    6172    11851    11853 1
    6173     3741     3743 1
    6174    11455    11457 1
    6175    10918    10920 1
    6176     8407     8409 1
    6177    13750    13752 1
    6178     8029     8031 1
    6179    13615    13617 1
    6180    11293    11295 1
    6181     3892     3893 1
    6182    11647    11649 1
    6183    11833    11835 1
    6184     5080     5081 1
    6185     2164     2165 1
    6186     4702     4703 1
    6187     6538     6539 1
    6188     6015     6016 1
    6189     6660     6661 1
    6190     5904     5905 1
    6191     5818     5819 1
    6192     4068     4069 1
    6193     5173     5174 1
    6194     5367     5368 1
    6195     4858     4859 1
    6196     5478     5479 1
    6197     6771     6772 1
    6198     3670     3671 1
    6199     6583     6584 1
    6200     8758     8759 1
    6201     7273     7274 1
    6202     7348     7350 1
    6203     3460     3461 1
    6204     3680     3682 1
    6205    10978    10980 1
    6206     5273     5274 1
    6207     2435     2434 1
    6208     5219     5220 1
    6209     9406     9407 1
    6210     1818     1819 1
    6211     6982     6983 1
    6212     7102     7103 1
    6213      770      771 1
    6214     2358     2359 1
    6215     4524     4525 1
    6216     5286     5287 1
    6217     6360     6361 1
    6218    14575    14577 1
    6219     6979     6980 1
    6220     7051     7052 1
    6221     4657     4658 1
    6222     9460     9462 1
    6223    13384    13386 1
    6224     1965     1966 1
    6225    10561    10563 1
    6226     7321     7323 1
    6227    10642    10644 1
    6228    14476    14478 1
    6229    12559    12561 1
    6230     9400     9402 1
    6231     9157     9159 1
    6232     9076     9078 1
    6233    10480    10482 1
    6234     7402     7404 1
    6235     2142     2143 1
    6236     5199     5201 1
    6237     6025     6026 1
    6238     6562     6563 1
    6239     5078     5080 1
    6240    11266    11268 1
    6241      728      729 1
    6242     4453     4454 1
    6243     8209     8210 1
    6244     8371     8372 1
    6245     5527     5528 1
    6246     3691     3692 1
    6247     8749     8750 1
    6248    10951    10952 1
    6249    12868    12869 1
    6250     8587     8588 1
    6251    13246    13247 1
    6252    10006    10007 1
    6253     2908     2909 1
    6254     9544     9545 1
    6255     9976     9977 1
    6256     9895     9896 1
    6257    10705    10706 1
    6258     7465     7466 1
    6259    11299    11300 1
    6260    13378    13379 1
    6261    11542    11543 1
    6262    11380    11381 1
    6263    12784    12785 1
    6264    13588    13589 1
    6265     4585     4586 1
    6266    12088    12090 1
    6267     8929     8931 1
    6268     8767     8769 1
    6269     9010     9012 1
    6270     3086     3087 1
    6271     1250     1251 1
    6272     4544     4546 1
    6273     8431     8432 1
    6274     9172     9174 1
    6275     4076     4077 1
    6276      635      636 1
    6277      707      708 1
    6278     7606     7608 1
    6279    10792    10793 1
    6280     4347     4346 1
    6281     8218     8219 1
    6282    12829    12830 1
    6283     8548     8549 1
    6284     7750     7751 1
    6285     5090     5091 1
    6286     7105     7106 1
    6287     6985     6986 1
    6288     3447     3448 1
    6289     6678     6679 1
    6290    14239    14241 1
    6291    12025    12027 1
    6292    11581    11582 1
    6293     1851     1853 1
    6294     2416     2417 1
    6295      580      581 1
    6296      973      976 1
    6297     6352     6331 1
    6298     6676     6655 1
    6299     4516     4495 1
    6300     8140     8141 1
    6301     9301     9302 1
    6302     8176     8178 1
    6303     3666     3667 1
    6304     6039     6040 1
    6305     6045     6046 1
    6306     6801     6802 1
    6307     5502     5503 1
    6308     4965     4966 1
    6309     4274     4276 1
    6310       39       40 1
    6311     1731     1732 1
    6312     1898     1901 1
    6313     2055     2056 1
    6314     6110     6112 1
    6315     9133     9134 1
    6316    11065    11066 1
    6317     9229     9230 1
    6318     6113     6114 1
    6319     5816     5817 1
    6320     3980     3981 1
    6321    13360    13362 1
    6322     7531     7532 1
    6323     2634     2633 1
    6324     2964     2965 1
    6325      366      367 1
    6326     1017     1018 1
    6327     3075     3076 1
    6328     1239     1240 1
    6329      255      256 1
    6330     1849     1850 1
    6331    12067    12069 1
    6332      958      959 1
    6333      319      320 1
    6334     2794     2795 1
    6335     2473     2474 1
    6336     3016     3017 1
    6337     1069     1070 1
    6338     2024     2025 1
    6339       65       66 1
    6340     1262     1263 1
    6341     3098     3099 1
    6342      950      951 1
    6343     2064     2065 1
    6344    12667    12669 1
    6345    12382    12384 1
    6346     3020     3021 1
    6347     1184     1185 1
    6348      311      312 1
    6349     2147     2148 1
    6350      142      143 1
    6351     3334     3335 1
    6352     9571     9573 1
    6353     7204     7205 1
    6354    11524    11525 1
    6355    11686    11687 1
    6356     8284     8285 1
    6357    10363    10364 1
    6358     4915     4918 1
    6359    13888    13890 1
    6360     1838     1840 1
    6361    13426    13427 1
    6362     1566     1565 1
    6363      557      558 1
    6364     2504     2505 1
    6365     9826     9827 1
    6366     4782     4783 1
    6367     2445     2446 1
    6368     4662     4663 1
    6369     3055     3054 1
    6370     6609     6610 1
    6371     4154     4155 1
    6372     3605     3606 1
    6373     6101     6102 1
    6374     5441     5442 1
    6375     1012     1013 1
    6376     2860     2861 1
    6377     2848     2849 1
    6378     1024     1025 1
    6379     4021     4022 1
    6380     4436     4439 1
    6381     6272     6275 1
    6382    10606    10608 1
    6383     7366     7368 1
    6384    14521    14523 1
    6385    12604    12606 1
    6386    12442    12444 1
    6387     7447     7449 1
    6388     6568     6547 1
    6389     9364     9366 1
    6390     3732     3733 1
    6391     6756     6757 1
    6392     8227     8228 1
    6393     1186     1187 1
    6394    13735    13736 1
    6395     6369     6370 1
    6396     1734     1735 1
    6397    14041    14043 1
    6398     1032     1033 1
    6399     6500     6501 1
    6400     9415     9417 1
    6401     4100     4101 1
    6402     6248     6249 1
    6403     6047     6048 1
    6404     4412     4413 1
    6405     7294     7295 1
    6406     3687     3689 1
    6407     6171     6173 1
    6408     4335     4337 1
    6409     5584     5585 1
    6410     6781     6782 1
    6411     5371     5372 1
    6412     3206     3205 1
    6413     3856     3857 1
    6414     5365     5366 1
    6415     1370     1369 1
    6416     3529     3530 1
    6417     6392     6393 1
    6418     4108     4105 1
    6419      240      239 1
    6420     5105     5106 1
    6421     4445     4446 1
    6422    10708    10709 1
    6423    11869    11870 1
    6424     8992     8993 1
    6425     8641     8642 1
    6426     7819     7820 1
    6427    11707    11708 1
    6428     9547     9548 1
    6429    13624    13625 1
    6430     2349     2348 1
    6431    11896    11897 1
    6432      402      401 1
    6433     8119     8120 1
    6434     2708     2710 1
    6435     2213     2214 1
    6436     9343     9344 1
    6437     7327     7329 1
    6438     6622     6623 1
    6439     4786     4787 1
    6440    13672    13673 1
    6441     9481     9482 1
    6442     2363     2364 1
    6443     3641     3642 1
    6444     4514     4515 1
    6445     5588     5589 1
    6446    13078    13080 1
    6447     5503     5504 1
    6448      175      176 1
    6449     2702     2704 1
    6450     7489     7490 1
    6451     3893     3894 1
    6452    10183    10184 1
    6453     1725     1726 1
    6454     2939     2940 1
    6455     2726     2727 1
    6456     3050     3051 1
    6457     9574     9575 1
    6458     7033     7034 1
    6459     5678     5679 1
    6460      329      330 1
    6461     2897     2898 1
    6462     2165     2166 1
    6463     1864     1863 1
    6464     1271     1272 1
    6465     5862     5863 1
    6466     7576     7577 1
    6467     9142     9143 1
    6468    13393    13394 1
    6469    14089    14091 1
    6470     2870     2872 1
    6471     2090     2088 1
    6472     2762     2764 1
    6473      926      928 1
    6474     9145     9146 1
    6475     7417     7418 1
    6476     1537     1538 1
    6477     3080     3082 1
    6478     9502     9503 1
    6479    14389    14390 1
    6480    12742    12743 1
    6481     6326     6328 1
    6482     1407     1408 1
    6483    10825    10826 1
    6484     9664     9665 1
    6485     7423     7424 1
    6486    10663    10664 1
    6487    12904    12905 1
    6488     3243     3244 1
    6489    10921    10923 1
    6490     7762     7764 1
    6491     9679     9681 1
    6492    11164    11166 1
    6493    13000    13002 1
    6494     9760     9762 1
    6495     7843     7845 1
    6496    14341    14342 1
    6497     9841     9843 1
    6498     7669     7670 1
    6499    10822    10823 1
    6500     3629     3630 1
    6501     8863     8865 1
    6502    14020    14022 1
    6503    13657    13659 1
    6504    11200    11202 1
    6505     2935     2936 1
    6506     1099     1100 1
    6507     1105     1106 1
    6508      355      356 1
    6509      787      788 1
    6510      667      668 1
    6511     1216     1217 1
    6512     2191     2192 1
    6513     1963     1964 1
    6514     2185     2186 1
    6515     3248     3251 1
    6516     1412     1415 1
    6517     9799     9801 1
    6518    12850    12852 1
    6519    13201    13203 1
    6520     7693     7695 1
    6521     9043     9045 1
    6522     9961     9963 1
    6523     9610     9612 1
    6524    11980    11981 1
    6525     9448     9450 1
    6526    13768    13770 1
    6527     9091     9092 1
    6528     5382     5384 1
    6529    10141    10143 1
    6530     1823     1824 1
    6531       31       32 1
    6532     2267     2268 1
    6533     2579     2580 1
    6534    10522    10523 1
    6535      202      201 1
    6536    10888    10889 1
    6537    11656    11658 1
    6538     4382     4385 1
    6539     6218     6221 1
    6540    13129    13130 1
    6541     3494     3495 1
    6542     5513     5514 1
    6543     2259     2260 1
    6544     2291     2292 1
    6545      136      137 1
    6546      773      774 1
    6547     2834     2835 1
    6548     1865     1866 1
    6549      455      456 1
    6550     6669     6670 1
    6551     5256     5257 1
    6552     4833     4834 1
    6553     3531     3532 1
    6554     6558     6559 1
    6555     7189     7191 1
    6556     5466     5467 1
    6557      714      715 1
    6558     2550     2551 1
    6559     4841     4842 1
    6560     6677     6678 1
    6561     5289     5288 1
    6562     7234     7236 1
    6563     1621     1624 1
    6564     2262     2263 1
    6565      222      223 1
    6566     6816     6817 1
    6567     5520     5521 1
    6568     2097     2098 1
    6569     1554     1555 1
    6570      219      220 1
    6571    11059    11061 1
    6572     7891     7893 1
    6573    13372    13373 1
    6574     6672     6673 1
    6575    11323    11324 1
    6576     8083     8084 1
    6577     4209     4210 1
    6578      648      647 1
    6579     3521     3522 1
    6580     6005     6006 1
    6581     3503     3504 1
    6582     7699     7701 1
    6583    12856    12858 1
    6584     3166     3145 1
    6585     9616     9618 1
    6586     9454     9456 1
    6587     8617     8619 1
    6588     4436     4438 1
    6589    13612    13614 1
    6590    10777    10779 1
    6591     7537     7539 1
    6592     8764     8765 1
    6593     6022     6023 1
    6594     5260     5261 1
    6595     6289     6290 1
    6596     3805     3806 1
    6597     5752     5753 1
    6598     5530     5531 1
    6599     5641     5642 1
    6600    12556    12557 1
    6601      285      287 1
    6602    10297    10299 1
    6603     7918     7920 1
    6604    13537    13539 1
    6605     3508     3509 1
    6606     3144     3143 1
    6607    11452    11454 1
    6608     8932     8933 1
    6609       66       67 1
    6610      169      170 1
    6611     1465     1464 1
    6612     9922     9923 1
    6613     2678     2679 1
    6614     3191     3192 1
    6615     1355     1356 1
    6616    13681    13683 1
    6617     7873     7874 1
    6618    11401    11402 1
    6619     7165     7167 1
    6620    10054    10055 1
    6621      360      362 1
    6622    10588    10589 1
    6623     9877     9878 1
    6624     3404     3406 1
    6625      779      780 1
    6626      127      128 1
    6627    12706    12707 1
    6628       69       71 1
    6629     4594     4595 1
    6630     9127     9129 1
    6631     7966     7968 1
    6632    13489    13491 1
    6633    11410    11412 1
    6634     8332     8334 1
    6635    13825    13827 1
    6636    11584    11586 1
    6637    11746    11748 1
    6638    10249    10251 1
    6639     4674     4675 1
    6640     7792     7794 1
    6641     5976     5977 1
    6642     5868     5869 1
    6643     4388     4389 1
    6644     3363     3365 1
    6645     4140     4141 1
    6646     4032     4033 1
    6647     1527     1529 1
    6648     4280     4281 1
    6649     4763     4764 1
    6650     4692     4691 1
    6651    10354    10356 1
    6652     6650     6652 1
    6653     5461     5462 1
    6654     6817     6818 1
    6655     5629     5630 1
    6656     4814     4816 1
    6657     3579     3580 1
    6658     5138     5140 1
    6659     5415     5416 1
    6660    12271    12273 1
    6661    11947    11949 1
    6662     9625     9627 1
    6663    13351    13353 1
    6664    13513    13515 1
    6665    11110    11112 1
    6666     8356     8358 1
    6667     9193     9195 1
    6668     8104     8105 1
    6669    10678    10680 1
    6670     4366     4367 1
    6671    10396    10397 1
    6672     5681     5682 1
    6673    12349    12351 1
    6674     3492     3494 1
    6675    13201    13202 1
    6676      155      156 1
    6677     3387     3388 1
    6678     3183     3184 1
    6679     1236     1237 1
    6680      909      908 1
    6681      158      157 1
    6682     7180     7182 1
    6683     1347     1348 1
    6684     8167     8169 1
    6685     1736     1739 1
    6686     5756     5757 1
    6687     1504     1505 1
    6688     1615     1616 1
    6689     2578     2579 1
    6690     3340     3341 1
    6691     3451     3452 1
    6692     2266     2267 1
    6693     2689     2690 1
    6694      379      382 1
    6695    13660    13662 1
    6696     9757     9759 1
    6697    12457    12459 1
    6698     6441     6442 1
    6699     6009     6010 1
    6700     4173     4174 1
    6701     4651     4652 1
    6702    12358    12359 1
    6703     9532     9534 1
    6704     5153     5154 1
    6705     9484     9485 1
    6706    13444    13445 1
    6707    10204    10205 1
    6708    11281    11282 1
    6709     6181     6182 1
    6710     4647     4648 1
    6711    13108    13109 1
    6712     3947     3946 1
    6713     9808     9809 1
    6714     5674     5675 1
    6715     4268     4270 1
    6716     5097     5098 1
    6717     8992     8994 1
    6718    12787    12789 1
    6719     5921     5922 1
    6720    11377    11378 1
    6721    11386    11387 1
    6722    11116    11117 1
    6723     9631     9632 1
    6724     8038     8039 1
    6725     8065     8066 1
    6726     7795     7796 1
    6727    11035    11036 1
    6728    11548    11549 1
    6729    10144    10145 1
    6730    13384    13385 1
    6731     2911     2912 1
    6732     6585     6586 1
    6733     4749     4750 1
    6734     4089     4090 1
    6735     5712     5713 1
    6736     4638     4639 1
    6737    10816    10818 1
    6738     4425     4426 1
    6739     3876     3877 1
    6740     6474     6475 1
    6741     9541     9543 1
    6742    12967    12969 1
    6743    13744    13745 1
    6744     1920     1921 1
    6745      396      397 1
    6746     1587     1588 1
    6747     3423     3424 1
    6748    10801    10802 1
    6749     1828     1827 1
    6750     9421     9422 1
    6751     2362     2361 1
    6752     2519     2520 1
    6753      683      684 1
    6754     9424     9426 1
    6755     2174     2173 1
    6756     7072     7074 1
    6757    10891    10892 1
    6758     3809     3810 1
    6759     6719     6720 1
    6760     2067     2068 1
    6761     5645     5646 1
    6762     1635     1636 1
    6763    11923    11924 1
    6764     9856     9857 1
    6765     9694     9695 1
    6766    11761    11762 1
    6767    13678    13679 1
    6768     3491     3492 1
    6769     7777     7778 1
    6770    11179    11180 1
    6771     1440     1441 1
    6772     3309     3311 1
    6773    12460    12461 1
    6774     9139     9140 1
    6775     7411     7412 1
    6776     7303     7304 1
    6777    12892    12893 1
    6778    14458    14459 1
    6779     9652     9653 1
    6780     9490     9491 1
    6781     5542     5543 1
    6782     7384     7385 1
    6783    14482    14484 1
    6784     2563     2564 1
    6785     1489     1490 1
    6786     5218     5219 1
    6787       28       29 1
    6788     6213     6214 1
    6789     4888     4889 1
    6790     5375     5376 1
    6791     3539     3540 1
    6792     5687     5688 1
    6793    10024    10026 1
    6794     6591     6592 1
    6795     4755     4756 1
    6796     6319     6322 1
    6797    10150    10152 1
    6798     9427     9429 1
    6799     4216     4217 1
    6800     6052     6053 1
    6801     3788     3790 1
    6802     7207     7209 1
    6803     9112     9113 1
    6804     8830     8831 1
    6805    10192    10193 1
    6806     2093     2094 1
    6807     9316     9318 1
    6808    13219    13221 1
    6809    12301    12303 1
    6810    12139    12141 1
    6811     8899     8901 1
    6812     7738     7740 1
    6813     5558     5559 1
    6814     5552     5553 1
    6815    12718    12720 1
    6816    10801    10803 1
    6817     3716     3717 1
    6818     1311     1313 1
    6819     3147     3149 1
    6820     1018     1019 1
    6821    11056    11058 1
    6822     1790     1792 1
    6823     4840     4819 1
    6824     6000     6001 1
    6825     3127     3128 1
    6826     7087     7088 1
    6827     5607     5608 1
    6828     8998     8999 1
    6829     8809     8810 1
    6830     9367     9368 1
    6831     8647     8648 1
    6832    13618    13619 1
    6833    11608    11609 1
    6834    11863    11864 1
    6835    10285    10286 1
    6836     9727     9728 1
    6837    10702    10703 1
    6838     3135     3136 1
    6839    13216    13218 1
    6840     7978     7980 1
    6841     9733     9735 1
    6842    11218    11220 1
    6843     7735     7737 1
    6844     1784     1786 1
    6845     4474     4475 1
    6846     5011     5012 1
    6847     1104     1105 1
    6848     6421     6422 1
    6849     6847     6848 1
    6850      678      679 1
    6851      970      969 1
    6852     3118     3117 1
    6853     2806     2805 1
    6854     2907     2906 1
    6855      922      920 1
    6856     6034     6033 1
    6857     6790     6789 1
    6858     4198     4197 1
    6859     4954     4953 1
    6860     4939     4940 1
    6861     2027     2026 1
    6862     4294     4295 1
    6863     3961     3962 1
    6864     4723     4724 1
    6865     6775     6776 1
    6866      302      301 1
    6867     4988     4989 1
    6868     8017     8019 1
    6869     2666     2667 1
    6870    10015    10017 1
    6871     5969     5970 1
    6872     2891     2892 1
    6873     8098     8100 1
    6874     3464     3466 1
    6875    13255    13257 1
    6876    12166    12168 1
    6877     2555     2556 1
    6878     8659     8660 1
    6879     3386     3387 1
    6880     1025     1026 1
    6881     1337     1338 1
    6882    13039    13040 1
    6883       22       23 1
    6884      740      741 1
    6885       19       20 1
    6886     8734     8736 1
    6887     1499     1500 1
    6888     2801     2802 1
    6889     1835     1836 1
    6890     2576     2577 1
    6891     4727     4728 1
    6892     5039     5040 1
    6893     3746     3747 1
    6894     6875     6876 1
    6895     5045     5046 1
    6896     6338     6339 1
    6897     5574     5573 1
    6898     6674     6675 1
    6899    14344    14346 1
    6900     4502     4503 1
    6901     8920     8922 1
    6902    14347    14349 1
    6903    13765    13766 1
    6904    13603    13604 1
    6905     8446     8447 1
    6906     9931     9932 1
    6907    13333    13334 1
    6908    11848    11849 1
    6909     1739     1740 1
    6910    13171    13172 1
    6911    10483    10485 1
    6912    11212    11214 1
    6913     9889     9891 1
    6914     9649     9651 1
    6915     9646     9648 1
    6916     8323     8325 1
    6917     9079     9081 1
    6918     7408     7410 1
    6919    13726    13728 1
    6920    13480    13482 1
    6921    13402    13404 1
    6922     9487     9489 1
    6923     3785     3786 1
    6924     1102     1103 1
    6925     6336     6337 1
    6926    11329    11331 1
    6927     4201     4202 1
    6928     6799     6800 1
    6929     4963     4964 1
    6930    10126    10128 1
    6931     6037     6038 1
    6932     8593     8595 1
    6933     1531     1530 1
    6934     2833     2832 1
    6935     6740     6741 1
    6936     5117     5118 1
    6937     3470     3471 1
    6938     6893     6894 1
    6939     3274     3253 1
    6940      193      194 1
    6941     7651     7652 1
    6942     9013     9015 1
    6943    12766    12768 1
    6944     7690     7692 1
    6945    11011    11013 1
    6946     8770     8772 1
    6947     9607     9609 1
    6948     8932     8934 1
    6949     7528     7530 1
    6950    12847    12849 1
    6951    10849    10851 1
    6952    11155    11156 1
    6953     5661     5662 1
    6954       14       15 1
    6955     6385     6386 1
    6956     8404     8406 1
    6957    13051    13053 1
    6958     1844     1845 1
    6959     1680     1681 1
    6960    13033    13035 1
    6961     6304     6305 1
    6962     1010     1008 1
    6963     5015     5016 1
    6964    13753    13755 1
    6965     8266     8268 1
    6966     8023     8025 1
    6967     8185     8187 1
    6968     8104     8106 1
    6969    10021    10023 1
    6970    10102    10104 1
    6971    11344    11346 1
    6972     5905     5906 1
    6973    11506    11508 1
    6974    13261    13263 1
    6975     6256     6255 1
    6976    13096    13098 1
    6977     6769     6770 1
    6978    11512    11514 1
    6979     6290     6291 1
    6980     1055     1056 1
    6981     3314     3315 1
    6982     5429     5430 1
    6983     5203     5204 1
    6984    13813    13814 1
    6985    10546    10547 1
    6986    12205    12206 1
    6987     4135     4136 1
    6988     6832     6833 1
    6989    10222    10223 1
    6990     7306     7307 1
    6991     6138     6139 1
    6992     4302     4303 1
    6993    13462    13463 1
    6994     6481     6484 1
    6995    13519    13520 1
    6996     1914     1913 1
    6997     7900     7901 1
    6998      260      261 1
    6999     3173     3174 1
    7000    11458    11460 1
    7001     1985     1986 1
    7002     3398     3399 1
    7003    13957    13958 1
    7004     7714     7716 1
    7005    12871    12873 1
    7006     9280     9282 1
    7007     7552     7554 1
    7008     9118     9120 1
    7009     8389     8391 1
    7010    10954    10956 1
    7011    13870    13872 1
    7012     8119     8121 1
    7013     2950     2951 1
    7014     2012     2013 1
    7015    11011    11012 1
    7016     5349     5350 1
    7017     3513     3514 1
    7018     6335     6336 1
    7019    10798    10799 1
    7020     4354     4333 1
    7021     5779     5782 1
    7022     4062     4061 1
    7023     6485     6486 1
    7024     2304     2306 1
    7025    13441    13442 1
    7026      957      958 1
    7027     1500     1501 1
    7028     2793     2794 1
    7029       20       21 1
    7030     1074     1075 1
    7031     1293     1294 1
    7032     8032     8033 1
    7033    12109    12110 1
    7034     3129     3130 1
    7035     3730     3731 1
    7036     9115     9117 1
    7037     7372     7374 1
    7038    14581    14583 1
    7039     9277     9279 1
    7040    10612    10614 1
    7041     9196     9198 1
    7042    14176    14178 1
    7043    12259    12261 1
    7044    12274    12276 1
    7045    10504    10506 1
    7046     4680     4681 1
    7047     7402     7403 1
    7048     9238     9239 1
    7049     3600     3601 1
    7050     3394     3395 1
    7051      700      701 1
    7052    11044    11045 1
    7053     5738     5739 1
    7054     7804     7805 1
    7055     9250     9251 1
    7056    11137    11138 1
    7057     6840     6842 1
    7058     6384     6385 1
    7059     4548     4549 1
    7060     4224     4225 1
    7061     5004     5006 1
    7062     2654     2657 1
    7063      818      821 1
    7064     8380     8381 1
    7065    13075    13076 1
    7066    11740    11741 1
    7067     5171     5172 1
    7068     5393     5394 1
    7069     5060     5061 1
    7070     3770     3771 1
    7071     5183     5184 1
    7072     5180     5181 1
    7073     3548     3549 1
    7074    10513    10515 1
    7075    14086    14088 1
    7076     1875     1876 1
    7077     2637     2638 1
    7078      912      913 1
    7079      801      802 1
    7080      180      181 1
    7081      146      147 1
    7082     3463     3464 1
    7083     5004     5005 1
    7084     5401     5404 1
    7085     3565     3568 1
    7086     1778     1779 1
    7087     2852     2853 1
    7088     9682     9683 1
    7089     6379     6380 1
    7090     4003     4004 1
    7091     5793     5794 1
    7092     6333     6334 1
    7093     3957     3958 1
    7094     4543     4544 1
    7095     4497     4498 1
    7096      116      119 1
    7097     7012     7013 1
    7098      844      845 1
    7099    13900    13902 1
    7100     5678     5681 1
    7101    14569    14570 1
    7102     7570     7572 1
    7103    14209    14211 1
    7104     1626     1625 1
    7105    10318    10319 1
    7106    11641    11642 1
    7107     7021     7022 1
    7108    13558    13559 1
    7109     2120     2121 1
    7110     1872     1873 1
    7111     2844     2845 1
    7112     8239     8240 1
    7113    11479    11480 1
    7114    13720    13721 1
    7115      321      322 1
    7116    12379    12381 1
    7117    10894    10895 1
    7118     5074     5075 1
    7119     3487     3488 1
    7120     2105     2106 1
    7121     6910     6911 1
    7122     6882     6883 1
    7123    14542    14544 1
    7124     5978     5979 1
    7125     6857     6858 1
    7126     6851     6852 1
    7127    12070    12072 1
    7128     8014     8016 1
    7129     7636     7638 1
    7130    12955    12957 1
    7131    10093    10095 1
    7132     9715     9717 1
    7133     7363     7364 1
    7134    11683    11684 1
    7135    14437    14438 1
    7136    10603    10604 1
    7137     8281     8282 1
    7138    10360    10361 1
    7139    12682    12683 1
    7140    11521    11522 1
    7141     1563     1564 1
    7142     4332     4333 1
    7143    13705    13707 1
    7144     6601     6602 1
    7145     1788     1789 1
    7146     5344     5345 1
    7147     3826     3827 1
    7148     2295     2296 1
    7149     5233     5234 1
    7150     2991     2992 1
    7151       90       91 1
    7152     2728     2729 1
    7153     3102     3103 1
    7154     1642     1643 1
    7155     1266     1267 1
    7156     2340     2341 1
    7157     5507     5508 1
    7158    12139    12140 1
    7159     5708     5709 1
    7160     1871     1872 1
    7161     2411     2412 1
    7162      575      576 1
    7163    12490    12492 1
    7164     6498     6499 1
    7165     4131     4132 1
    7166     6616     6615 1
    7167     7333     7335 1
    7168      389      390 1
    7169     2225     2226 1
    7170     2272     2270 1
    7171     5593     5594 1
    7172     7198     7200 1
    7173     6667     6668 1
    7174     7006     7008 1
    7175     6958     6960 1
    7176     3352     3349 1
    7177     7462     7463 1
    7178     1818     1820 1
    7179    13993    13994 1
    7180     2358     2360 1
    7181    12619    12620 1
    7182     1520     1522 1
    7183     2924     2926 1
    7184    11383    11384 1
    7185     3356     3358 1
    7186    10273    10274 1
    7187     8518     8519 1
    7188    11596    11597 1
    7189    12595    12596 1
    7190    14512    14513 1
    7191    13840    13841 1
    7192    12433    12434 1
    7193     9355     9356 1
    7194     5434     5435 1
    7195     7438     7439 1
    7196     1006     1007 1
    7197     1762     1763 1
    7198    10804    10805 1
    7199     1718     1719 1
    7200     8782     8783 1
    7201    10765    10767 1
    7202     8605     8607 1
    7203     4741     4742 1
    7204      109      112 1
    7205     3401     3400 1
    7206     1568     1570 1
    7207      353      354 1
    7208     1316     1317 1
    7209     8467     8468 1
    7210      760      759 1
    7211     9868     9869 1
    7212     5786     5787 1
    7213    11191    11192 1
    7214     2596     2595 1
    7215     3950     3951 1
    7216       78       79 1
    7217    12232    12233 1
    7218     4347     4348 1
    7219     3838     3836 1
    7220     6183     6184 1
    7221     4770     4771 1
    7222     5015     5014 1
    7223     6270     6271 1
    7224     5638     5639 1
    7225     7555     7557 1
    7226     6684     6685 1
    7227     5544     5546 1
    7228    14200    14201 1
    7229     7783     7784 1
    7230    10432    10433 1
    7231    11917    11918 1
    7232    13471    13472 1
    7233     4598     4600 1
    7234     9700     9701 1
    7235    13507    13508 1
    7236     9862     9863 1
    7237     8314     8315 1
    7238     7009     7011 1
    7239     2540     2542 1
    7240     3267     3268 1
    7241     1431     1432 1
    7242     3546     3547 1
    7243     1860     1861 1
    7244     9148     9149 1
    7245    12730    12731 1
    7246     5697     5696 1
    7247      349      350 1
    7248      886      887 1
    7249     1867     1868 1
    7250     2611     2612 1
    7251     2404     2405 1
    7252      775      776 1
    7253     8101     8102 1
    7254     2833     2834 1
    7255      343      344 1
    7256      460      461 1
    7257     9742     9744 1
    7258    12052    12054 1
    7259    14560    14562 1
    7260    10555    10557 1
    7261     4229     4230 1
    7262    10636    10638 1
    7263    14470    14472 1
    7264     9394     9396 1
    7265    12472    12474 1
    7266    12553    12555 1
    7267     3469     3470 1
    7268      453      452 1
    7269     9151     9153 1
    7270    14410    14411 1
    7271     1484     1485 1
    7272    11752    11754 1
    7273    12646    12647 1
    7274     2344     2345 1
    7275     2131     2132 1
    7276      508      509 1
    7277     3217     3218 1
    7278     1045     1046 1
    7279     1807     1808 1
    7280      721      722 1
    7281     2881     2882 1
    7282     1918     1919 1
    7283     1270     1271 1
    7284    12079    12081 1
    7285     9376     9378 1
    7286     3675     3676 1
    7287    13561    13563 1
    7288      974      976 1
    7289     7894     7896 1
    7290     8326     8327 1
    7291     8134     8136 1
    7292     8002     8004 1
    7293    13453    13455 1
    7294     6701     6702 1
    7295    11914    11916 1
    7296     9703     9705 1
    7297    12943    12945 1
    7298     8164     8166 1
    7299    10081    10083 1
    7300    10213    10215 1
    7301    12820    12821 1
    7302     6376     6377 1
    7303    11338    11340 1
    7304     5996     5998 1
    7305     5564     5566 1
    7306     9109     9110 1
    7307     3807     3808 1
    7308     3630     3631 1
    7309     5034     5035 1
    7310     6870     6871 1
    7311    12829    12831 1
    7312     7042     7043 1
    7313     8548     8550 1
    7314     7750     7752 1
    7315     3827     3828 1
    7316     3977     3978 1
    7317     5813     5814 1
    7318        1        4 1
    7319     2317     2318 1
    7320      481      482 1
    7321     3073     3074 1
    7322     4203     4204 1
    7323      237      236 1
    7324     2816     2817 1
    7325      980      981 1
    7326    10393    10394 1
    7327     6637     6638 1
    7328     4363     4364 1
    7329     6424     6425 1
    7330     6088     6089 1
    7331     9871     9872 1
    7332      844      823 1
    7333     2680     2659 1
    7334     8980     8981 1
    7335    11719    11720 1
    7336     2484     2483 1
    7337     1542     1541 1
    7338       98       97 1
    7339     2002     2000 1
    7340     1131     1130 1
    7341     2967     2966 1
    7342     1253     1254 1
    7343     3089     3090 1
    7344      985      986 1
    7345     1309     1310 1
    7346     6087     6088 1
    7347     4362     4363 1
    7348     4365     4366 1
    7349     7153     7155 1
    7350     3225     3226 1
    7351      601      602 1
    7352     8515     8517 1
    7353    11971    11972 1
    7354     1681     1682 1
    7355     2283     2284 1
    7356     1795     1796 1
    7357     6067     6068 1
    7358     4231     4232 1
    7359     3919     3920 1
    7360     5755     5756 1
    7361     6829     6830 1
    7362     1290     1291 1
    7363    10477    10478 1
    7364     2229     2231 1
    7365    10927    10929 1
    7366      682      683 1
    7367    14491    14493 1
    7368    12574    12576 1
    7369     7768     7770 1
    7370     2006     2007 1
    7371     9685     9687 1
    7372     9766     9768 1
    7373     9334     9336 1
    7374    12493    12495 1
    7375     1358     1359 1
    7376     3194     3195 1
    7377    11263    11264 1
    7378     4286     4287 1
    7379     6122     6123 1
    7380     4570     4549 1
    7381     6406     6385 1
    7382     3490     3469 1
    7383      587      586 1
    7384     2423     2422 1
    7385     3251     3252 1
    7386     5511     5512 1
    7387     1415     1416 1
    7388     6807     6808 1
    7389     4323     4324 1
    7390     4971     4972 1
    7391     7510     7511 1
    7392     7111     7113 1
    7393     8722     8723 1
    7394     5846     5847 1
    7395     6542     6543 1
    7396     6937     6938 1
    7397     5894     5895 1
    7398     4422     4423 1
    7399     1301     1302 1
    7400     3005     3006 1
    7401     1169     1170 1
    7402      198      199 1
    7403    10639    10641 1
    7404     6723     6724 1
    7405    11638    11640 1
    7406    14380    14382 1
    7407    11140    11142 1
    7408     7399     7401 1
    7409    10315    10317 1
    7410    14473    14475 1
    7411     5350     5348 1
    7412     9154     9156 1
    7413     4854     4853 1
    7414     6224     6225 1
    7415     6690     6689 1
    7416    10582    10583 1
    7417     6275     6276 1
    7418     4439     4440 1
    7419     6864     6865 1
    7420     5934     5935 1
    7421     3555     3556 1
    7422     6976     6977 1
    7423     4489     4490 1
    7424     6325     6326 1
    7425     6279     6280 1
    7426    14371    14372 1
    7427    10705    10707 1
    7428     9544     9546 1
    7429     9301     9303 1
    7430     9976     9978 1
    7431     9895     9897 1
    7432     7465     7467 1
    7433    13378    13380 1
    7434    11380    11382 1
    7435    12703    12705 1
    7436    11299    11301 1
    7437     6199     6200 1
    7438     3610     3611 1
    7439      102      103 1
    7440    12010    12012 1
    7441      254      252 1
    7442     3557     3558 1
    7443     3340     3339 1
    7444     1504     1503 1
    7445      358      337 1
    7446      195      194 1
    7447     3145     3146 1
    7448    12580    12582 1
    7449      290      289 1
    7450     1822     1823 1
    7451       30       31 1
    7452       93       94 1
    7453     1510     1511 1
    7454     9811     9813 1
    7455      526      527 1
    7456     2934     2933 1
    7457     2622     2621 1
    7458      290      291 1
    7459      786      785 1
    7460     2015     2016 1
    7461     3378     3377 1
    7462     1259     1260 1
    7463     2971     2974 1
    7464    10009    10010 1
    7465      257      258 1
    7466      593      594 1
    7467     9055     9057 1
    7468    12400    12402 1
    7469     9904     9906 1
    7470     9394     9395 1
    7471     7513     7514 1
    7472     5901     5902 1
    7473     5947     5948 1
    7474     4065     4066 1
    7475    14275    14277 1
    7476    14413    14414 1
    7477     5693     5694 1
    7478     3814     3793 1
    7479     7996     7997 1
    7480     2140     2141 1
    7481     7420     7422 1
    7482    11362    11363 1
    7483     7852     7853 1
    7484    13009    13010 1
    7485    10039    10040 1
    7486    13279    13280 1
    7487    13117    13118 1
    7488     9769     9770 1
    7489     8053     8055 1
    7490    10930    10931 1
    7491     7960     7961 1
    7492    10162    10163 1
    7493      222      221 1
    7494    11317    11318 1
    7495     8077     8078 1
    7496    10156    10157 1
    7497      531      532 1
    7498     7915     7916 1
    7499     7117     7118 1
    7500     1068     1069 1
    7501     2475     2476 1
    7502     9994     9995 1
    7503     9913     9914 1
    7504     2904     2905 1
    7505     4090     4091 1
    7506     6831     6832 1
    7507     4239     4240 1
    7508      997      996 1
    7509    10183    10185 1
    7510     5958     5959 1
    7511     2874     2875 1
    7512     3938     3939 1
    7513     5231     5232 1
    7514     9574     9576 1
    7515     4995     4996 1
    7516     5284     5285 1
    7517     5388     5389 1
    7518     1367     1368 1
    7519     6380     6383 1
    7520     4544     4547 1
    7521     9646     9647 1
    7522     9040     9042 1
    7523    14008    14010 1
    7524     8959     8961 1
    7525    13846    13848 1
    7526     8878     8880 1
    7527     8689     8691 1
    7528     8851     8853 1
    7529    14116    14118 1
    7530    13927    13929 1
    7531    12361    12363 1
    7532    14203    14205 1
    7533     7576     7578 1
    7534     9142     9144 1
    7535     5952     5953 1
    7536    13393    13395 1
    7537     4225     4226 1
    7538     9754     9756 1
    7539     2976     2977 1
    7540     9145     9147 1
    7541     7417     7419 1
    7542     4156     4157 1
    7543      831      832 1
    7544       86       87 1
    7545     1704     1705 1
    7546     3429     3430 1
    7547      122      123 1
    7548     1593     1594 1
    7549     4493     4494 1
    7550     6329     6330 1
    7551     6149     6150 1
    7552     4313     4314 1
    7553     6365     6366 1
    7554    14341    14343 1
    7555     3383     3384 1
    7556      898      877 1
    7557    10531    10533 1
    7558     7669     7671 1
    7559    10864    10865 1
    7560     2462     2463 1
    7561     1897     1898 1
    7562     2663     2664 1
    7563      827      828 1
    7564     6401     6402 1
    7565     9505     9506 1
    7566    14488    14489 1
    7567    10531    10532 1
    7568    10666    10667 1
    7569    11950    11951 1
    7570    13948    13949 1
    7571     5630     5631 1
    7572     9667     9668 1
    7573    13786    13787 1
    7574     8965     8966 1
    7575      144      145 1
    7576     1457     1458 1
    7577    13921    13922 1
    7578    11077    11079 1
    7579    13780    13782 1
    7580     9052     9054 1
    7581    13267    13268 1
    7582     1883     1884 1
    7583     3176     3177 1
    7584     1658     1659 1
    7585     3014     3015 1
    7586     1178     1179 1
    7587     4917     4918 1
    7588     6753     6754 1
    7589    10522    10524 1
    7590     5835     5836 1
    7591     6620     6621 1
    7592     5887     5890 1
    7593     2918     2920 1
    7594     9865     9866 1
    7595     3999     4000 1
    7596    11425    11426 1
    7597      104      105 1
    7598     3444     3445 1
    7599     2942     2943 1
    7600     3368     3369 1
    7601    12043    12044 1
    7602     1185     1186 1
    7603     1424     1425 1
    7604     3021     3022 1
    7605     1961     1962 1
    7606     1732     1733 1
    7607     3260     3261 1
    7608     2831     2832 1
    7609     8656     8657 1
    7610    12583    12585 1
    7611    14500    14502 1
    7612     8845     8847 1
    7613     7264     7266 1
    7614     8683     8685 1
    7615    14110    14112 1
    7616     9343     9345 1
    7617     8953     8955 1
    7618    12853    12855 1
    7619     7696     7698 1
    7620     2931     2933 1
    7621     4464     4466 1
    7622     8074     8075 1
    7623    14461    14462 1
    7624     8224     8225 1
    7625     9526     9528 1
    7626      386      388 1
    7627     2222     2224 1
    7628     2330     2332 1
    7629      494      496 1
    7630     6174     6175 1
    7631     9253     9254 1
    7632     7039     7040 1
    7633    11905    11906 1
    7634     9025     9026 1
    7635    14509    14510 1
    7636     8584     8585 1
    7637     7354     7355 1
    7638    14428    14429 1
    7639    12184    12185 1
    7640    10594    10595 1
    7641     5847     5848 1
    7642     8746     8747 1
    7643     4011     4012 1
    7644     6408     6410 1
    7645     5893     5894 1
    7646     4443     4444 1
    7647     2619     2620 1
    7648     1857     1858 1
    7649    12907    12908 1
    7650     5058     5059 1
    7651    10573    10574 1
    7652     1788     1787 1
    7653     7003     7005 1
    7654     5567     5568 1
    7655     5291     5292 1
    7656     5492     5493 1
    7657     4205     4206 1
    7658     3668     3669 1
    7659     6041     6042 1
    7660     5828     5829 1
    7661     5504     5505 1
    7662      132      133 1
    7663     1000     1001 1
    7664     2836     2837 1
    7665     2725     2726 1
    7666     4024     4023 1
    7667     1639     1640 1
    7668     5860     5859 1
    7669      778      779 1
    7670     4726     4727 1
    7671     6518     6516 1
    7672     5800     5801 1
    7673     5476     5477 1
    7674     6349     6350 1
    7675     9124     9126 1
    7676    10204    10206 1
    7677     9286     9288 1
    7678     8125     8127 1
    7679    14281    14283 1
    7680     8764     8766 1
    7681    12526    12528 1
    7682     6970     6971 1
    7683     2994     2993 1
    7684      922      919 1
    7685     2558     2559 1
    7686    10033    10034 1
    7687     3074     3075 1
    7688    13831    13833 1
    7689    13645    13647 1
    7690     1238     1239 1
    7691     2017     2018 1
    7692     2128     2129 1
    7693     3863     3862 1
    7694     3974     3973 1
    7695    12556    12558 1
    7696     3229     3230 1
    7697     6622     6601 1
    7698     3922     3901 1
    7699     4462     4441 1
    7700     5758     5737 1
    7701     4786     4765 1
    7702     6298     6277 1
    7703     6082     6061 1
    7704    10741    10743 1
    7705    11563    11565 1
    7706    12562    12564 1
    7707    11050    11052 1
    7708      163      166 1
    7709     7501     7502 1
    7710    14278    14279 1
    7711     9121     9122 1
    7712     3537     3538 1
    7713     5796     5797 1
    7714     3883     3884 1
    7715     3550     3551 1
    7716     5386     5387 1
    7717     4306     4307 1
    7718     3661     3662 1
    7719     5484     5485 1
    7720     5497     5498 1
    7721     5830     5831 1
    7722     6281     6282 1
    7723     5608     5609 1
    7724    10588    10590 1
    7725     5898     5899 1
    7726     5250     5251 1
    7727     3522     3523 1
    7728     5358     5359 1
    7729     4062     4063 1
    7730        6        7 1
    7731     6089     6090 1
    7732    12706    12708 1
    7733     4301     4302 1
    7734     6137     6138 1
    7735     6785     6786 1
    7736     7603     7604 1
    7737    12760    12761 1
    7738    12019    12020 1
    7739     7396     7398 1
    7740     4432     4431 1
    7741     8662     8664 1
    7742     8122     8124 1
    7743     8338     8340 1
    7744    13495    13497 1
    7745    10255    10257 1
    7746    11416    11418 1
    7747    13441    13443 1
    7748     7798     7800 1
    7749    11038    11040 1
    7750     9877     9879 1
    7751     4596     4597 1
    7752     5883     5884 1
    7753     1029     1030 1
    7754     2865     2866 1
    7755     6961     6963 1
    7756     2282     2283 1
    7757     2999     3000 1
    7758     3768     3769 1
    7759     5604     5605 1
    7760     2390     2391 1
    7761       51       52 1
    7762     4117     4118 1
    7763     5413     5414 1
    7764    12700    12702 1
    7765     2600     2601 1
    7766     5953     5954 1
    7767     8245     8246 1
    7768    13534    13535 1
    7769     5688     5689 1
    7770     5020     5021 1
    7771    13168    13169 1
    7772      207      206 1
    7773     5891     5892 1
    7774    10534    10536 1
    7775     9967     9969 1
    7776     9049     9051 1
    7777     6380     6382 1
    7778    11290    11292 1
    7779     7210     7212 1
    7780    13207    13209 1
    7781     8887     8889 1
    7782     5203     5202 1
    7783     9805     9807 1
    7784      925      926 1
    7785     2441     2442 1
    7786      605      606 1
    7787     1469     1470 1
    7788     3431     3432 1
    7789     4767     4769 1
    7790    13345    13347 1
    7791      709      710 1
    7792     2499     2500 1
    7793      663      664 1
    7794     2545     2546 1
    7795    11518    11519 1
    7796    10276    10277 1
    7797    11680    11681 1
    7798    12934    12935 1
    7799     5274     5275 1
    7800    11599    11600 1
    7801     1088     1090 1
    7802     9937     9938 1
    7803    11260    11261 1
    7804    11098    11099 1
    7805    11920    11921 1
    7806    11758    11759 1
    7807    10840    10841 1
    7808    13675    13676 1
    7809     9517     9518 1
    7810      479      480 1
    7811    10435    10436 1
    7812    11002    11003 1
    7813     2280     2281 1
    7814      444      445 1
    7815     9784     9785 1
    7816    11224    11226 1
    7817    13141    13143 1
    7818    13222    13224 1
    7819     7741     7743 1
    7820     9739     9741 1
    7821     9820     9822 1
    7822     2369     2370 1
    7823     7984     7986 1
    7824     4980     4979 1
    7825     5542     5521 1
    7826    12358    12360 1
    7827     2032     2033 1
    7828     6400     6401 1
    7829     1631     1632 1
    7830     9664     9666 1
    7831     9265     9266 1
    7832     6866     6867 1
    7833     6002     6003 1
    7834     9289     9291 1
    7835     1817     1818 1
    7836     4160     4162 1
    7837    11797    11798 1
    7838     6288     6289 1
    7839     4665     4666 1
    7840     6501     6502 1
    7841     5576     5577 1
    7842     5328     5329 1
    7843     6629     6628 1
    7844     3255     3257 1
    7845     3848     3849 1
    7846     1672     1673 1
    7847      910      911 1
    7848     1660     1661 1
    7849     6511     6512 1
    7850     3740     3741 1
    7851     1419     1421 1
    7852     4996     4997 1
    7853    10060    10061 1
    7854     9910     9911 1
    7855     9874     9875 1
    7856     5844     5845 1
    7857     4008     4009 1
    7858     3842     3844 1
    7859     4432     4430 1
    7860     3518     3520 1
    7861     3302     3305 1
    7862     9418     9419 1
    7863     1548     1550 1
    7864    14506    14508 1
    7865    10120    10122 1
    7866    13744    13746 1
    7867     1011     1012 1
    7868     1122     1123 1
    7869      585      586 1
    7870     2421     2422 1
    7871     2847     2848 1
    7872     2958     2959 1
    7873     1844     1847 1
    7874     2038     2039 1
    7875      313      314 1
    7876     5935     5936 1
    7877     2260     2261 1
    7878     1930     1931 1
    7879     3022     3023 1
    7880       79       80 1
    7881     6050     6052 1
    7882     4214     4216 1
    7883     2011     2012 1
    7884     1475     1476 1
    7885     8254     8255 1
    7886      609      611 1
    7887     6570     6572 1
    7888     2070     2071 1
    7889    13630    13632 1
    7890    11389    11391 1
    7891     2455     2456 1
    7892     2569     2570 1
    7893     1162     1163 1
    7894     6225     6226 1
    7895     8149     8151 1
    7896     5042     5041 1
    7897     3233     3234 1
    7898     2471     2472 1
    7899     1397     1398 1
    7900    13276    13277 1
    7901      524      525 1
    7902     7600     7601 1
    7903     7156     7157 1
    7904     8248     8249 1
    7905     8125     8126 1
    7906    11170    11172 1
    7907     1904     1905 1
    7908     7582     7584 1
    7909     3950     3953 1
    7910     5786     5789 1
    7911     4215     4216 1
    7912     7831     7832 1
    7913    12988    12989 1
    7914    13048    13050 1
    7915     6051     6052 1
    7916     7810     7811 1
    7917     2196     2198 1
    7918    12694    12695 1
    7919    14449    14450 1
    7920    10372    10373 1
    7921    10615    10616 1
    7922     5084     5085 1
    7923    11695    11696 1
    7924    11533    11534 1
    7925     7375     7376 1
    7926     8293     8294 1
    7927     7213     7214 1
    7928     5134     5135 1
    7929     2380     2381 1
    7930     3880     3881 1
    7931     5605     5606 1
    7932     4318     4319 1
    7933     6154     6155 1
    7934     3769     3770 1
    7935     6466     6467 1
    7936     6478     6479 1
    7937     5392     5393 1
    7938     4642     4643 1
    7939     7624     7626 1
    7940    13666    13668 1
    7941      979      980 1
    7942     2815     2816 1
    7943    11896    11898 1
    7944     3722     3723 1
    7945    10240    10241 1
    7946    14062    14064 1
    7947     8905     8907 1
    7948    12145    12147 1
    7949    13225    13227 1
    7950    11539    11540 1
    7951     8011     8012 1
    7952    13060    13061 1
    7953    11494    11495 1
    7954     7822     7823 1
    7955    10900    10901 1
    7956     9577     9578 1
    7957    13249    13250 1
    7958    11332    11333 1
    7959    12979    12980 1
    7960    10981    10982 1
    7961     6582     6583 1
    7962     3507     3508 1
    7963    13408    13410 1
    7964     3138     3139 1
    7965       41       42 1
    7966     1952     1953 1
    7967     3596     3597 1
    7968     3928     3929 1
    7969     2349     2350 1
    7970      513      514 1
    7971     2130     2131 1
    7972     1908     1909 1
    7973      402      403 1
    7974     2019     2020 1
    7975     4783     4784 1
    7976      960      959 1
    7977     2796     2795 1
    7978     7285     7287 1
    7979     1979     1980 1
    7980     9259     9260 1
    7981     9337     9339 1
    7982    10666    10668 1
    7983     6312     6313 1
    7984     3939     3940 1
    7985     4476     4477 1
    7986     6201     6202 1
    7987     5775     5776 1
    7988     3828     3829 1
    7989     7150     7152 1
    7990     7054     7056 1
    7991     6916     6918 1
    7992     7435     7437 1
    7993    12049    12050 1
    7994     8131     8133 1
    7995      283      284 1
    7996     2443     2444 1
    7997     7927     7928 1
    7998    13084    13085 1
    7999    13516    13517 1
    8000    11611    11612 1
    8001    10288    10289 1
    8002    11503    11504 1
    8003    12922    12923 1
    8004     8359     8360 1
    8005    11341    11342 1
    8006    13354    13355 1
    8007    14161    14162 1
    8008    14566    14567 1
    8009    12325    12326 1
    8010    14323    14324 1
    8011    14242    14243 1
    8012     1880     1881 1
    8013     9085     9086 1
    8014    12244    12245 1
    8015    12406    12407 1
    8016    10489    10490 1
    8017    11185    11186 1
    8018    10585    10586 1
    8019      308      309 1
    8020      533      534 1
    8021     2144     2145 1
    8022     1283     1284 1
    8023     1607     1608 1
    8024      320      321 1
    8025     1394     1395 1
    8026     2156     2157 1
    8027     5471     5472 1
    8028     4946     4947 1
    8029    11986    11987 1
    8030      383      384 1
    8031     7018     7019 1
    8032     3801     3800 1
    8033     5637     5636 1
    8034     6080     6081 1
    8035      542      544 1
    8036    13291    13292 1
    8037     2486     2488 1
    8038    12751    12752 1
    8039     1462     1463 1
    8040     1932     1933 1
    8041     3257     3258 1
    8042     1220     1221 1
    8043     9721     9722 1
    8044     1421     1422 1
    8045     4058     4059 1
    8046     4706     4707 1
    8047     2597     2598 1
    8048      305      306 1
    8049     2141     2142 1
    8050     6075     6076 1
    8051     4350     4351 1
    8052     6518     6519 1
    8053     6629     6630 1
    8054     6357     6356 1
    8055     1228     1229 1
    8056     6499     6500 1
    8057     6246     6247 1
    8058    13042    13043 1
    8059     4658     4659 1
    8060     5934     5933 1
    8061      278      280 1
    8062     8473     8474 1
    8063     7228     7229 1
    8064     4171     4172 1
    8065     7120     7121 1
    8066     5976     5978 1
    8067    14185    14186 1
    8068     9511     9512 1
    8069    10537    10538 1
    8070     7432     7433 1
    8071    14128    14129 1
    8072     9673     9674 1
    8073    12484    12485 1
    8074    12565    12566 1
    8075    11944    11945 1
    8076    12187    12188 1
    8077     9475     9476 1
    8078    10813    10815 1
    8079    10651    10653 1
    8080     9220     9222 1
    8081    12460    12462 1
    8082    12892    12894 1
    8083     7573     7575 1
    8084    12541    12543 1
    8085     9652     9654 1
    8086     9490     9492 1
    8087     7384     7386 1
    8088     1212     1213 1
    8089     1332     1333 1
    8090     2937     2938 1
    8091     3153     3154 1
    8092     9262     9263 1
    8093    12541    12542 1
    8094     7573     7574 1
    8095     9358     9359 1
    8096    11770    11771 1
    8097    11047    11048 1
    8098     2498     2497 1
    8099    12064    12066 1
    8100     8986     8988 1
    8101     2164     2161 1
    8102     1583     1584 1
    8103      722      723 1
    8104     2985     2987 1
    8105     3889     3892 1
    8106     5725     5728 1
    8107     8512     8514 1
    8108     3424     3425 1
    8109     2194     2195 1
    8110    13555    13557 1
    8111     7900     7902 1
    8112     5579     5580 1
    8113     6341     6342 1
    8114     3542     3543 1
    8115    14404    14405 1
    8116     4505     4506 1
    8117    10402    10403 1
    8118    11725    11726 1
    8119     6542     6545 1
    8120     5894     5897 1
    8121     1523     1524 1
    8122    13435    13437 1
    8123     8056     8058 1
    8124    10702    10704 1
    8125    14536    14538 1
    8126     7462     7464 1
    8127    10864    10866 1
    8128     8461     8463 1
    8129    11890    11892 1
    8130    12049    12051 1
    8131     8647     8649 1
    8132    13618    13620 1
    8133    10378    10380 1
    8134      488      490 1
    8135      668      669 1
    8136     8410     8411 1
    8137     7543     7545 1
    8138     3861     3862 1
    8139     5808     5809 1
    8140     4898     4899 1
    8141     3821     3822 1
    8142     5657     5658 1
    8143     5821     5822 1
    8144     1996     1997 1
    8145     1780     1781 1
    8146     3283     3284 1
    8147     1987     1988 1
    8148     2536     2537 1
    8149     9997     9999 1
    8150     9238     9240 1
    8151       24       25 1
    8152     2649     2650 1
    8153     6763     6764 1
    8154      813      814 1
    8155      654      655 1
    8156    11044    11046 1
    8157      762      763 1
    8158     3495     3496 1
    8159       42       43 1
    8160     2490     2491 1
    8161     2103     2104 1
    8162     9250     9252 1
    8163     7804     7806 1
    8164     3816     3818 1
    8165     4608     4607 1
    8166    13087    13088 1
    8167    13285    13286 1
    8168    11368    11369 1
    8169    13651    13652 1
    8170     2734     2713 1
    8171     3595     3596 1
    8172    12181    12183 1
    8173     8779     8781 1
    8174     2302     2281 1
    8175      466      445 1
    8176     8563     8565 1
    8177    14098    14100 1
    8178     6946     6948 1
    8179     8941     8943 1
    8180     4905     4906 1
    8181     3609     3610 1
    8182     6741     6742 1
    8183     3831     3832 1
    8184     5667     5668 1
    8185     6630     6631 1
    8186     3720     3721 1
    8187     6519     6520 1
    8188     4683     4684 1
    8189     5556     5557 1
    8190     1741     1742 1
    8191     6958     6959 1
    8192     3428     3427 1
    8193     1481     1480 1
    8194     5473     5474 1
    8195     1592     1591 1
    8196    13147    13149 1
    8197     5417     5418 1
    8198     3581     3582 1
    8199     5647     5648 1
    8200     5098     5099 1
    8201     4123     4124 1
    8202     2002     1999 1
    8203    10639    10640 1
    8204     7540     7542 1
    8205    13021    13022 1
    8206     2064     2063 1
    8207     8212     8213 1
    8208     6429     6430 1
    8209     4593     4594 1
    8210     9682     9684 1
    8211     5795     5796 1
    8212    13546    13548 1
    8213     1679     1680 1
    8214        8        9 1
    8215    12661    12663 1
    8216    13996    13997 1
    8217     8839     8840 1
    8218    13297    13298 1
    8219      960      961 1
    8220     2370     2371 1
    8221     2612     2613 1
    8222    11542    11544 1
    8223    14440    14442 1
    8224    14569    14571 1
    8225       88       89 1
    8226     4248     4249 1
    8227     5812     5813 1
    8228     3976     3977 1
    8229     4370     4369 1
    8230     6206     6205 1
    8231     7504     7505 1
    8232     3025     3028 1
    8233    11149    11150 1
    8234     3612     3613 1
    8235    10786    10787 1
    8236     3714     3713 1
    8237     5550     5549 1
    8238     5337     5336 1
    8239     3936     3935 1
    8240     5910     5909 1
    8241     4057     4058 1
    8242     5739     5740 1
    8243     5785     5786 1
    8244     3903     3904 1
    8245     3949     3950 1
    8246     5353     5354 1
    8247     1716     1717 1
    8248     5465     5466 1
    8249     4447     4446 1
    8250     6283     6282 1
    8251     9823     9825 1
    8252     2816     2819 1
    8253      980      983 1
    8254     2158     2159 1
    8255       27       28 1
    8256    10807    10809 1
    8257     4086     4088 1
    8258     4518     4520 1
    8259     6354     6356 1
    8260    13210    13212 1
    8261    10540    10542 1
    8262     7840     7842 1
    8263     5731     5732 1
    8264     3895     3896 1
    8265     9523     9524 1
    8266    13840    13842 1
    8267     7615     7617 1
    8268     6402     6403 1
    8269     3296     3298 1
    8270    10804    10806 1
    8271     7726     7727 1
    8272     2356     2357 1
    8273    13738    13740 1
    8274     5621     5620 1
    8275     1091     1092 1
    8276    12769    12771 1
    8277     7612     7614 1
    8278    10852    10854 1
    8279    13318    13320 1
    8280    14407    14408 1
    8281     3568     3569 1
    8282    13963    13964 1
    8283    13801    13802 1
    8284    14287    14288 1
    8285     5840     5841 1
    8286    12532    12533 1
    8287     1656     1657 1
    8288    12208    12209 1
    8289     9130     9131 1
    8290     9292     9293 1
    8291       43       44 1
    8292      299      300 1
    8293     3636     3637 1
    8294      331      332 1
    8295     2121     2122 1
    8296     3355     3356 1
    8297     2167     2168 1
    8298     8467     8469 1
    8299     1519     1520 1
    8300    12232    12234 1
    8301       35       34 1
    8302     6407     6408 1
    8303     4571     4572 1
    8304     6488     6491 1
    8305     4760     4763 1
    8306     9298     9299 1
    8307    11359    11360 1
    8308    14113    14114 1
    8309    11008    11009 1
    8310    11926    11927 1
    8311    12763    12764 1
    8312     8956     8957 1
    8313    13681    13682 1
    8314    10441    10442 1
    8315     2433     2434 1
    8316     5772     5771 1
    8317      597      598 1
    8318     5883     5882 1
    8319      499      500 1
    8320    12736    12738 1
    8321     5128     5129 1
    8322     1749     1750 1
    8323     3372     3373 1
    8324     3378     3379 1
    8325      834      835 1
    8326     2448     2449 1
    8327     2670     2671 1
    8328     2136     2137 1
    8329     1485     1486 1
    8330     3210     3211 1
    8331     3321     3322 1
    8332     2559     2560 1
    8333     3432     3433 1
    8334     1596     1597 1
    8335     5936     5937 1
    8336     9478     9479 1
    8337    10027    10029 1
    8338    10579    10581 1
    8339    12118    12120 1
    8340     1763     1764 1
    8341    14155    14156 1
    8342      407      408 1
    8343     2005     2006 1
    8344     3206     3207 1
    8345     8101     8103 1
    8346    13354    13356 1
    8347     6373     6376 1
    8348     5438     5436 1
    8349    11434    11435 1
    8350    11272    11273 1
    8351     9031     9032 1
    8352    13189    13190 1
    8353     9949     9950 1
    8354     9787     9788 1
    8355    10516    10517 1
    8356    12670    12672 1
    8357     8869     8870 1
    8358     7264     7265 1
    8359     8350     8351 1
    8360      940      941 1
    8361      466      467 1
    8362    10231    10232 1
    8363     5810     5809 1
    8364    14410    14412 1
    8365     2887     2888 1
    8366      530      531 1
    8367     2366     2367 1
    8368       13       14 1
    8369     4809     4810 1
    8370     5133     5134 1
    8371     6645     6646 1
    8372     5903     5904 1
    8373     4067     4068 1
    8374    10108    10110 1
    8375     8944     8945 1
    8376       59       58 1
    8377      952      953 1
    8378    12397    12398 1
    8379    11311    11313 1
    8380     4159     4162 1
    8381     9268     9269 1
    8382      382      383 1
    8383     6268     6269 1
    8384     3406     3407 1
    8385     7993     7994 1
    8386    13150    13151 1
    8387     1840     1841 1
    8388     5532     5533 1
    8389     9709     9711 1
    8390    11908    11910 1
    8391     5643     5644 1
    8392     8008     8010 1
    8393    12949    12951 1
    8394     6399     6400 1
    8395     8128     8130 1
    8396     7630     7632 1
    8397     3468     3469 1
    8398     2823     2825 1
    8399      987      989 1
    8400     9409     9411 1
    8401    11815    11816 1
    8402     1898     1900 1
    8403     9535     9536 1
    8404    10738    10739 1
    8405     5115     5114 1
    8406     7015     7016 1
    8407     5709     5710 1
    8408     8107     8108 1
    8409     8638     8639 1
    8410     8353     8354 1
    8411    11347    11348 1
    8412    13348    13349 1
    8413     8800     8801 1
    8414    10294    10295 1
    8415    13510    13511 1
    8416    10024    10025 1
    8417    11617    11618 1
    8418     9583     9585 1
    8419     7438     7440 1
    8420    14512    14514 1
    8421    10273    10275 1
    8422    11596    11598 1
    8423    12595    12597 1
    8424     9355     9357 1
    8425     6100     6101 1
    8426     4804     4805 1
    8427     1209     1210 1
    8428     3045     3046 1
    8429     6979     6981 1
    8430     7051     7053 1
    8431     7495     7496 1
    8432    10660    10661 1
    8433     9382     9383 1
    8434     6462     6463 1
    8435    10756    10758 1
    8436    14590    14592 1
    8437     1182     1181 1
    8438     3129     3128 1
    8439      426      425 1
    8440     2293     2294 1
    8441     1327     1328 1
    8442     8050     8051 1
    8443     3370     3371 1
    8444      138      139 1
    8445      360      361 1
    8446     1020     1019 1
    8447     9871     9873 1
    8448      991      992 1
    8449     3163     3164 1
    8450    11719    11721 1
    8451     8980     8982 1
    8452     6451     6452 1
    8453     5689     5690 1
    8454     3782     3784 1
    8455     7990     7992 1
    8456    11230    11232 1
    8457    12958    12960 1
    8458    13228    13230 1
    8459     7558     7560 1
    8460     7720     7722 1
    8461     7639     7641 1
    8462     7747     7749 1
    8463     9745     9747 1
    8464     9718     9720 1
    8465    13126    13127 1
    8466    14446    14448 1
    8467    14083    14085 1
    8468     1689     1691 1
    8469     7846     7847 1
    8470    13111    13112 1
    8471    10147    10149 1
    8472     4588     4589 1
    8473      298      299 1
    8474     2134     2135 1
    8475     1372     1373 1
    8476     4887     4888 1
    8477     2048     2049 1
    8478     2075     2076 1
    8479     1286     1287 1
    8480     3122     3123 1
    8481    10477    10479 1
    8482     2360     2361 1
    8483     3752     3753 1
    8484     3738     3737 1
    8485    12427    12429 1
    8486    11263    11265 1
    8487     4569     4568 1
    8488     6405     6404 1
    8489     6002     6005 1
    8490     6866     6869 1
    8491     9160     9162 1
    8492     7219     7220 1
    8493     7948     7950 1
    8494    11917    11919 1
    8495    11185    11187 1
    8496    13507    13509 1
    8497    10432    10434 1
    8498     8350     8352 1
    8499     9700     9702 1
    8500     7783     7785 1
    8501    11428    11430 1
    8502    10267    10269 1
    8503    14035    14036 1
    8504    12790    12792 1
    8505     6322     6323 1
    8506     6555     6556 1
    8507     5370     5371 1
    8508     4630     4631 1
    8509     4395     4396 1
    8510     6444     6445 1
    8511     6790     6791 1
    8512     6231     6232 1
    8513     3778     3779 1
    8514     5716     5717 1
    8515     3667     3668 1
    8516     6577     6578 1
    8517    12697    12698 1
    8518     7510     7512 1
    8519     6330     6331 1
    8520     6438     6439 1
    8521     4494     4495 1
    8522     4602     4603 1
    8523     4941     4942 1
    8524     5123     5124 1
    8525     8722     8724 1
    8526     6209     6210 1
    8527     6801     6800 1
    8528     4965     4964 1
    8529    14479    14480 1
    8530     8068     8070 1
    8531     9310     9312 1
    8532    14224    14226 1
    8533    14386    14388 1
    8534     8554     8556 1
    8535    10645    10646 1
    8536     9472     9474 1
    8537    12712    12714 1
    8538    10795    10797 1
    8539    13387    13389 1
    8540    13396    13397 1
    8541    14332    14334 1
    8542    10498    10500 1
    8543     3552     3553 1
    8544     5499     5500 1
    8545     5298     5299 1
    8546     4962     4963 1
    8547     3963     3964 1
    8548    11089    11090 1
    8549     5743     5744 1
    8550     3004     2983 1
    8551     1939     1938 1
    8552    13390    13391 1
    8553     7753     7755 1
    8554    12964    12966 1
    8555    10966    10968 1
    8556     7888     7890 1
    8557     7564     7566 1
    8558     7726     7728 1
    8559    13234    13236 1
    8560    11236    11238 1
    8561     4760     4762 1
    8562     9724     9726 1
    8563     5121     5122 1
    8564     4473     4474 1
    8565      186      185 1
    8566     5010     5011 1
    8567     6309     6310 1
    8568     6846     6847 1
    8569    14272    14273 1
    8570     6420     6421 1
    8571    12448    12449 1
    8572     6886     6887 1
    8573     5050     5051 1
    8574     6337     6338 1
    8575     6185     6186 1
    8576     2511     2510 1
    8577     2767     2768 1
    8578      931      932 1
    8579    11935    11936 1
    8580    13192    13193 1
    8581    11275    11276 1
    8582    11773    11774 1
    8583     9790     9791 1
    8584    11167    11168 1
    8585    13582    13583 1
    8586    10342    10343 1
    8587     7765     7766 1
    8588    13690    13691 1
    8589    11140    11141 1
    8590     7282     7283 1
    8591    12487    12488 1
    8592     7249     7250 1
    8593    10975    10976 1
    8594     7816     7817 1
    8595     9571     9572 1
    8596     1775     1776 1
    8597     7492     7493 1
    8598     8080     8082 1
    8599    12973    12974 1
    8600    10570    10571 1
    8601     1886     1887 1
    8602    12091    12092 1
    8603     3344     3345 1
    8604    10111    10113 1
    8605     1741     1740 1
    8606     4377     4378 1
    8607     4619     4620 1
    8608     6884     6885 1
    8609     6119     6120 1
    8610     4937     4938 1
    8611     6455     6456 1
    8612    11674    11675 1
    8613     5110     5089 1
    8614     6178     6179 1
    8615    12904    12906 1
    8616     7711     7712 1
    8617    10861    10862 1
    8618     7996     7998 1
    8619     7621     7622 1
    8620    13834    13835 1
    8621     1028     1030 1
    8622     6943     6945 1
    8623    10138    10140 1
    8624     9625     9626 1
    8625     6811     6812 1
    8626    14563    14565 1
    8627    14290    14292 1
    8628     8575     8577 1
    8629    12880    12882 1
    8630    13231    13233 1
    8631     5421     5422 1
    8632    11977    11979 1
    8633    14068    14070 1
    8634    13879    13881 1
    8635     9304     9306 1
    8636     7723     7725 1
    8637    12313    12315 1
    8638     5277     5276 1
    8639     3708     3709 1
    8640     5792     5793 1
    8641     3956     3957 1
    8642     3632     3633 1
    8643      913      914 1
    8644      181      182 1
    8645     4454     4455 1
    8646    13960    13961 1
    8647    11308    11309 1
    8648     5676     5677 1
    8649     1487     1488 1
    8650     6042     6043 1
    8651     4206     4207 1
    8652     6792     6793 1
    8653     4956     4957 1
    8654     3480     3481 1
    8655    12322    12323 1
    8656    14320    14321 1
    8657     3829     3830 1
    8658     6532     6533 1
    8659     2292     2293 1
    8660     5776     5777 1
    8661     3940     3941 1
    8662     4696     4697 1
    8663     7663     7664 1
    8664        3        4 1
    8665      480      481 1
    8666      258      259 1
    8667     2316     2317 1
    8668     2967     2968 1
    8669     1131     1132 1
    8670      588      589 1
    8671     2205     2206 1
    8672     7060     7062 1
    8673     1662     1663 1
    8674      699      700 1
    8675      173      174 1
    8676      123      124 1
    8677     2600     2603 1
    8678      218      220 1
    8679    12229    12231 1
    8680     2567     2568 1
    8681     1706     1707 1
    8682     1907     1908 1
    8683      936      935 1
    8684     2772     2771 1
    8685      473      474 1
    8686     2534     2535 1
    8687    12508    12509 1
    8688     2773     2774 1
    8689      937      938 1
    8690     7351     7352 1
    8691     3106     3107 1
    8692     9232     9233 1
    8693    11764    11765 1
    8694     8392     8393 1
    8695    13921    13923 1
    8696     5957     5958 1
    8697     3436     3437 1
    8698    10471    10473 1
    8699     4058     4061 1
    8700     4706     4709 1
    8701    10447    10449 1
    8702     9088     9089 1
    8703    14245    14246 1
    8704     9892     9894 1
    8705    10810    10812 1
    8706    13024    13025 1
    8707     2100     2099 1
    8708      870      869 1
    8709     2706     2705 1
    8710      272      274 1
    8711    11587    11588 1
    8712     2901     2902 1
    8713     3237     3238 1
    8714    11830    11831 1
    8715     2913     2914 1
    8716    13747    13748 1
    8717    10426    10427 1
    8718     2948     2949 1
    8719    13828    13829 1
    8720     3149     3150 1
    8721     1313     1314 1
    8722     1862     1863 1
    8723     6291     6292 1
    8724     2599     2600 1
    8725    11425    11427 1
    8726     3693     3694 1
    8727     4338     4339 1
    8728     8656     8658 1
    8729    12043    12045 1
    8730     2553     2554 1
    8731      717      718 1
    8732     4300     4301 1
    8733      293      294 1
    8734     1129     1130 1
    8735     4787     4788 1
    8736     6623     6624 1
    8737    13696    13697 1
    8738    12142    12143 1
    8739    10387    10388 1
    8740    13627    13628 1
    8741    11710    11711 1
    8742    11872    11873 1
    8743    14059    14060 1
    8744    12304    12305 1
    8745     8902     8903 1
    8746     8470     8471 1
    8747     5826     5827 1
    8748     3990     3991 1
    8749     2598     2599 1
    8750    14461    14463 1
    8751     8074     8076 1
    8752     8224     8226 1
    8753       44       45 1
    8754     3678     3679 1
    8755      656      657 1
    8756     2492     2493 1
    8757    11914    11915 1
    8758     9253     9255 1
    8759      783      784 1
    8760     2508     2509 1
    8761     2346     2347 1
    8762     2235     2236 1
    8763     1161     1162 1
    8764     1584     1585 1
    8765      510      511 1
    8766      399      400 1
    8767     2457     2458 1
    8768     4240     4241 1
    8769     3884     3885 1
    8770     7258     7260 1
    8771    12577    12579 1
    8772     7666     7667 1
    8773    12907    12909 1
    8774    10573    10575 1
    8775     3811     3810 1
    8776     4371     4372 1
    8777     5916     5917 1
    8778     5445     5446 1
    8779     4149     4150 1
    8780     6747     6748 1
    8781     4911     4912 1
    8782     1793     1794 1
    8783     6207     6208 1
    8784     5334     5335 1
    8785     5985     5986 1
    8786     6661     6662 1
    8787     4621     4622 1
    8788     4825     4826 1
    8789     5161     5162 1
    8790     5834     5836 1
    8791     6457     6458 1
    8792     6880     6881 1
    8793     7999     8000 1
    8794     2453     2454 1
    8795     6068     6069 1
    8796     1147     1148 1
    8797     4085     4084 1
    8798     2996     2997 1
    8799      617      618 1
    8800    13156    13157 1
    8801     3248     3250 1
    8802     1491     1490 1
    8803     1412     1414 1
    8804     9235     9236 1
    8805    14134    14135 1
    8806     8977     8978 1
    8807     8815     8816 1
    8808    12055    12056 1
    8809    12217    12218 1
    8810     8683     8684 1
    8811     5460     5461 1
    8812     7594     7596 1
    8813    14185    14187 1
    8814    13972    13973 1
    8815     1400     1401 1
    8816      431      432 1
    8817     1712     1713 1
    8818     2468     2469 1
    8819     3347     3348 1
    8820    10033    10035 1
    8821     4678     4657 1
    8822    14152    14153 1
    8823      142      121 1
    8824     4497     4499 1
    8825     5793     5795 1
    8826     6333     6335 1
    8827     3957     3959 1
    8828     4821     4823 1
    8829     5408     5409 1
    8830       98       99 1
    8831      849      850 1
    8832     1109     1110 1
    8833     2408     2409 1
    8834      998      999 1
    8835      572      573 1
    8836     2945     2946 1
    8837     6758     6759 1
    8838     4922     4923 1
    8839     6961     6962 1
    8840    10384    10385 1
    8841     2609     2610 1
    8842     7201     7202 1
    8843     1409     1410 1
    8844     2789     2790 1
    8845    14146    14147 1
    8846     6635     6636 1
    8847     4799     4800 1
    8848     4037     4038 1
    8849     3926     3927 1
    8850     5873     5874 1
    8851     3725     3726 1
    8852     6317     6316 1
    8853    13543    13544 1
    8854     7912     7913 1
    8855    11962    11963 1
    8856    12019    12021 1
    8857    12760    12762 1
    8858     7144     7145 1
    8859     8422     8423 1
    8860     8692     8693 1
    8861     8854     8855 1
    8862    13849    13850 1
    8863     2098     2099 1
    8864    13498    13499 1
    8865    13579    13580 1
    8866    10339    10340 1
    8867    14011    14012 1
    8868     8341     8342 1
    8869     5307     5308 1
    8870     3517     3518 1
    8871      345      346 1
    8872      882      883 1
    8873     2718     2719 1
    8874     9046     9047 1
    8875     2181     2182 1
    8876     5924     5925 1
    8877     5819     5820 1
    8878     3872     3873 1
    8879    10462    10463 1
    8880     3671     3672 1
    8881     8776     8777 1
    8882    12679    12680 1
    8883     5282     5283 1
    8884     1972     1973 1
    8885      126      127 1
    8886     1855     1856 1
    8887    13531    13532 1
    8888      238      239 1
    8889      247      248 1
    8890     3614     3615 1
    8891     1952     1955 1
    8892     3673     3676 1
    8893     5432     5433 1
    8894     3170     3171 1
    8895     1454     1455 1
    8896     7972     7974 1
    8897     7786     7788 1
    8898     2528     2529 1
    8899      191      192 1
    8900      692      693 1
    8901      698      699 1
    8902     1222     1223 1
    8903     2712     2713 1
    8904     9979     9981 1
    8905    11476    11478 1
    8906     3301     3300 1
    8907     6060     6059 1
    8908     7975     7976 1
    8909    13132    13133 1
    8910     9025     9027 1
    8911     9187     9189 1
    8912    14509    14511 1
    8913     7354     7356 1
    8914    12184    12186 1
    8915     9352     9354 1
    8916    14428    14430 1
    8917    10594    10596 1
    8918    12592    12594 1
    8919    12430    12432 1
    8920     1224     1226 1
    8921    10165    10166 1
    8922     8653     8654 1
    8923     4512     4513 1
    8924     6348     6349 1
    8925     8587     8589 1
    8926    14263    14264 1
    8927     9001     9002 1
    8928    13714    13715 1
    8929     7885     7887 1
    8930     8737     8739 1
    8931     7561     7563 1
    8932     5684     5685 1
    8933     5056     5057 1
    8934      472      473 1
    8935    11701    11702 1
    8936     1768     1769 1
    8937     9070     9072 1
    8938     2701     2704 1
    8939      865      868 1
    8940    11818    11819 1
    8941     3081     3082 1
    8942    14170    14172 1
    8943     1245     1246 1
    8944     5070     5071 1
    8945     6906     6907 1
    8946     3483     3484 1
    8947    10060    10062 1
    8948     1249     1250 1
    8949     9910     9912 1
    8950     7123     7124 1
    8951     2060     2061 1
    8952     8476     8477 1
    8953     9874     9876 1
    8954      342      343 1
    8955     4427     4428 1
    8956     3436     3415 1
    8957     9781     9783 1
    8958     3639     3638 1
    8959     5475     5474 1
    8960     1330     1309 1
    8961      682      661 1
    8962     4038     4039 1
    8963     3927     3928 1
    8964     5874     5875 1
    8965     2389     2390 1
    8966    12688    12689 1
    8967     7756     7757 1
    8968     8542     8543 1
    8969     4841     4840 1
    8970    10684    10685 1
    8971     1736     1738 1
    8972    14380    14381 1
    8973      964      965 1
    8974     2146     2147 1
    8975     3646     3647 1
    8976     9946     9947 1
    8977    12898    12900 1
    8978    10468    10470 1
    8979    14464    14466 1
    8980    12547    12549 1
    8981     7579     7581 1
    8982    10657    10659 1
    8983     9226     9228 1
    8984    10549    10551 1
    8985     4730     4729 1
    8986     7309     7311 1
    8987     8335     8336 1
    8988     7276     7278 1
    8989     1466     1467 1
    8990     2438     2439 1
    8991      602      603 1
    8992     4079     4080 1
    8993     3866     3867 1
    8994     3290     3289 1
    8995     3179     3178 1
    8996     6483     6484 1
    8997     9502     9504 1
    8998    10780    10781 1
    8999     3506     3507 1
    9000     3276     3278 1
    9001    13072    13073 1
    9002     4442     4443 1
    9003     1050     1051 1
    9004     8824     8825 1
    9005    10693    10695 1
    9006    12988    12990 1
    9007     2573     2574 1
    9008      737      738 1
    9009    11080    11081 1
    9010    10936    10938 1
    9011    13015    13017 1
    9012    11842    11844 1
    9013    13759    13761 1
    9014    13597    13599 1
    9015     8440     8442 1
    9016     9775     9777 1
    9017     8602     8604 1
    9018     7858     7860 1
    9019     1959     1961 1
    9020     2714     2715 1
    9021     6540     6539 1
    9022     6892     6871 1
    9023     5056     5035 1
    9024     4056     4057 1
    9025     4382     4384 1
    9026     5199     5200 1
    9027     5245     5246 1
    9028     1682     1685 1
    9029     6218     6220 1
    9030    11758    11760 1
    9031    11920    11922 1
    9032    13675    13677 1
    9033     9517     9519 1
    9034    11002    11004 1
    9035    10840    10842 1
    9036    12757    12759 1
    9037      276      277 1
    9038    10435    10437 1
    9039     7600     7602 1
    9040     2086     2065 1
    9041     6146     6147 1
    9042     4103     4104 1
    9043      582      583 1
    9044      471      472 1
    9045     2307     2308 1
    9046      152      153 1
    9047    10099    10100 1
    9048     1633     1634 1
    9049     3853     3854 1
    9050     2138     2137 1
    9051     1501     1502 1
    9052     3337     3338 1
    9053     2371     2372 1
    9054       21       22 1
    9055     2731     2732 1
    9056      535      536 1
    9057     3445     3446 1
    9058     2564     2565 1
    9059     1390     1391 1
    9060     2263     2264 1
    9061      825      827 1
    9062    11860    11862 1
    9063     3360     3361 1
    9064     2604     2605 1
    9065     1546     1547 1
    9066      768      769 1
    9067     6703     6704 1
    9068     6879     6880 1
    9069     6657     6658 1
    9070     8608     8609 1
    9071     1931     1932 1
    9072     1820     1821 1
    9073    13114    13115 1
    9074    11794    11795 1
    9075    10585    10587 1
    9076    12634    12636 1
    9077     4458     4457 1
    9078     4125     4124 1
    9079    13711    13713 1
    9080      866      868 1
    9081    12130    12132 1
    9082     2866     2867 1
    9083     1030     1031 1
    9084     1764     1765 1
    9085    13180    13181 1
    9086     6164     6165 1
    9087     7942     7943 1
    9088    11101    11102 1
    9089    13342    13343 1
    9090    13099    13100 1
    9091    12937    12938 1
    9092     4328     4329 1
    9093     3308     3309 1
    9094     4077     4078 1
    9095     4309     4310 1
    9096     5071     5072 1
    9097     3484     3485 1
    9098     6907     6908 1
    9099     4096     4097 1
    9100     5182     5183 1
    9101     4664     4665 1
    9102     6694     6695 1
    9103     6256     6257 1
    9104    12877    12878 1
    9105     1753     1752 1
    9106     1905     1906 1
    9107     1951     1952 1
    9108      822      823 1
    9109     9721     9723 1
    9110     3198     3199 1
    9111     1362     1363 1
    9112     4948     4949 1
    9113     2658     2659 1
    9114     2118     2119 1
    9115     5003     5004 1
    9116     6839     6840 1
    9117     6812     6815 1
    9118    10078    10079 1
    9119    12901    12903 1
    9120    12550    12552 1
    9121    13414    13416 1
    9122    12739    12741 1
    9123    14467    14469 1
    9124    10633    10635 1
    9125    11632    11634 1
    9126    11821    11823 1
    9127     9661     9663 1
    9128    10660    10662 1
    9129     1785     1786 1
    9130     6465     6466 1
    9131    13042    13044 1
    9132      867      868 1
    9133     7228     7230 1
    9134     1164     1165 1
    9135     3000     3001 1
    9136      828      829 1
    9137     2664     2665 1
    9138     4316     4317 1
    9139     5279     5280 1
    9140     5390     5391 1
    9141     6152     6153 1
    9142     3229     3228 1
    9143      859      858 1
    9144    13105    13107 1
    9145     9262     9264 1
    9146     5631     5633 1
    9147     4983     4985 1
    9148    10378    10379 1
    9149     2987     2988 1
    9150     4985     4986 1
    9151     3091     3092 1
    9152     1255     1256 1
    9153    11047    11049 1
    9154     4784     4785 1
    9155      447      448 1
    9156     2329     2330 1
    9157      839      840 1
    9158     2786     2787 1
    9159      493      494 1
    9160     8461     8462 1
    9161      292      293 1
    9162     1915     1916 1
    9163     2239     2240 1
    9164     3167     3166 1
    9165     1073     1074 1
    9166     2909     2910 1
    9167     3446     3447 1
    9168    14269    14271 1
    9169     5673     5674 1
    9170     5585     5586 1
    9171     4082     4083 1
    9172     3749     3750 1
    9173     4852     4853 1
    9174     5023     5026 1
    9175     1190     1192 1
    9176    10753    10754 1
    9177     4109     4110 1
    9178     7675     7676 1
    9179     8428     8429 1
    9180    12625    12626 1
    9181     8191     8192 1
    9182    11125    11127 1
    9183     7912     7914 1
    9184    10153    10155 1
    9185    12544    12546 1
    9186     9655     9657 1
    9187    10654    10656 1
    9188     5765     5766 1
    9189     3818     3819 1
    9190     5990     5991 1
    9191     3617     3618 1
    9192     5777     5778 1
    9193     6302     6303 1
    9194     4142     4143 1
    9195     5164     5165 1
    9196     3941     3942 1
    9197     3929     3930 1
    9198     7654     7656 1
    9199    13930    13931 1
    9200     2654     2656 1
    9201      818      820 1
    9202    11662    11663 1
    9203      143      144 1
    9204     6903     6904 1
    9205     5178     5179 1
    9206     4572     4574 1
    9207    10879    10880 1
    9208    12796    12797 1
    9209     7477     7478 1
    9210     9313     9314 1
    9211    14551    14552 1
    9212    10717    10718 1
    9213     6171     6172 1
    9214     9556     9557 1
    9215     6217     6218 1
    9216    12634    12635 1
    9217     4381     4382 1
    9218    12406    12408 1
    9219    14161    14163 1
    9220    12244    12246 1
    9221    14566    14568 1
    9222    12325    12327 1
    9223    14323    14325 1
    9224     5008     5009 1
    9225     5770     5771 1
    9226     1650     1651 1
    9227     6844     6845 1
    9228     5881     5882 1
    9229     2248     2227 1
    9230     3662     3663 1
    9231     4523     4524 1
    9232     4211     4212 1
    9233       24       23 1
    9234    12649    12650 1
    9235    13087    13089 1
    9236     1318     1319 1
    9237     3043     3044 1
    9238     1207     1208 1
    9239    13285    13287 1
    9240      895      896 1
    9241      244      245 1
    9242    11368    11370 1
    9243    13651    13653 1
    9244     1969     1970 1
    9245     1201     1202 1
    9246     3037     3038 1
    9247     6016     6017 1
    9248     5692     5693 1
    9249     5269     5270 1
    9250     4069     4070 1
    9251     5479     5480 1
    9252     1058     1057 1
    9253     2894     2893 1
    9254     4717     4718 1
    9255    12175    12177 1
    9256     8557     8559 1
    9257     8773     8775 1
    9258     4538     4540 1
    9259    14092    14094 1
    9260     8935     8937 1
    9261    14416    14417 1
    9262     2447     2448 1
    9263      689      690 1
    9264     2525     2526 1
    9265    13663    13664 1
    9266    11374    11376 1
    9267    11146    11148 1
    9268      755      756 1
    9269     2591     2592 1
    9270     7525     7526 1
    9271      743      744 1
    9272     9793     9794 1
    9273     1200     1201 1
    9274    10771    10773 1
    9275     6225     6227 1
    9276     8611     8613 1
    9277     9325     9327 1
    9278    11944    11946 1
    9279     9268     9270 1
    9280    12187    12189 1
    9281     8971     8973 1
    9282     7432     7434 1
    9283    14128    14130 1
    9284    12484    12486 1
    9285      989      990 1
    9286    12565    12567 1
    9287      464      465 1
    9288     2825     2826 1
    9289     2300     2301 1
    9290    10096    10098 1
    9291     4700     4702 1
    9292     6536     6538 1
    9293      135      134 1
    9294    10843    10844 1
    9295     5450     5449 1
    9296     5237     5236 1
    9297     5984     5983 1
    9298     4148     4147 1
    9299     3614     3613 1
    9300    13810    13812 1
    9301     5975     5976 1
    9302     4139     4140 1
    9303    10729    10730 1
    9304    11053    11054 1
    9305     6540     6541 1
    9306     2109     2110 1
    9307      273      274 1
    9308     4356     4358 1
    9309     7099     7100 1
    9310    10783    10785 1
    9311     3270     3271 1
    9312     1323     1324 1
    9313    10423    10424 1
    9314     7966     7967 1
    9315      128      129 1
    9316    13123    13124 1
    9317     6680     6681 1
    9318     5168     5169 1
    9319    13477    13479 1
    9320    10237    10239 1
    9321    14017    14019 1
    9322    13855    13857 1
    9323     6812     6814 1
    9324     8860     8862 1
    9325     8698     8700 1
    9326    13315    13317 1
    9327     3966     3967 1
    9328    10075    10077 1
    9329    14419    14420 1
    9330     6982     6984 1
    9331     7102     7104 1
    9332     5806     5807 1
    9333     9943     9945 1
    9334     4121     4122 1
    9335     5639     5640 1
    9336     1580     1579 1
    9337     3416     3415 1
    9338     4456     4457 1
    9339     8629     8630 1
    9340     9289     9290 1
    9341    10909    10910 1
    9342    10693    10694 1
    9343    12031    12032 1
    9344     8791     8792 1
    9345    10492    10493 1
    9346    12286    12287 1
    9347    10990    10991 1
    9348    12328    12329 1
    9349    13717    13718 1
    9350     3481     3482 1
    9351     6229     6230 1
    9352    10381    10382 1
    9353    12379    12380 1
    9354     8464     8465 1
    9355    11704    11705 1
    9356    11866    11867 1
    9357      905      906 1
    9358     3401     3402 1
    9359    14296    14297 1
    9360      148      149 1
    9361    13621    13622 1
    9362    13552    13553 1
    9363    11602    11604 1
    9364    12601    12603 1
    9365     7444     7446 1
    9366    10279    10281 1
    9367    12439    12441 1
    9368     3410     3411 1
    9369     1574     1575 1
    9370     9361     9363 1
    9371     1511     1512 1
    9372       94       95 1
    9373    14026    14028 1
    9374      745      746 1
    9375    12766    12767 1
    9376     7609     7610 1
    9377     8257     8258 1
    9378     3700     3701 1
    9379     4289     4290 1
    9380     3863     3864 1
    9381    11242    11244 1
    9382     2327     2328 1
    9383      491      492 1
    9384     9523     9525 1
    9385     1955     1956 1
    9386    11491    11492 1
    9387     4810     4811 1
    9388     6646     6647 1
    9389     3474     3475 1
    9390    14407    14409 1
    9391     8110     8111 1
    9392      231      233 1
    9393     5873     5872 1
    9394     4037     4036 1
    9395     1095     1097 1
    9396     6283     6284 1
    9397     8494     8495 1
    9398    14311    14312 1
    9399     9691     9692 1
    9400     5921     5920 1
    9401     3684     3685 1
    9402     7105     7107 1
    9403     6985     6987 1
    9404     3476     3477 1
    9405     9448     9449 1
    9406     4719     4718 1
    9407     4830     4829 1
    9408     3058     3037 1
    9409     1222     1201 1
    9410    11446    11447 1
    9411     2427     2428 1
    9412     1878     1879 1
    9413     6964     6966 1
    9414      591      592 1
    9415     3390     3389 1
    9416      903      904 1
    9417     9478     9480 1
    9418      532      533 1
    9419     3442     3443 1
    9420     2047     2048 1
    9421     3010     3011 1
    9422      862      863 1
    9423     1285     1286 1
    9424     1294     1295 1
    9425     3121     3122 1
    9426     3130     3131 1
    9427     1606     1607 1
    9428     2201     2202 1
    9429    11107    11109 1
    9430     5083     5084 1
    9431     6873     6874 1
    9432     7492     7494 1
    9433     2155     2156 1
    9434     5540     5541 1
    9435    12715    12717 1
    9436     9499     9501 1
    9437     4922     4925 1
    9438     6758     6761 1
    9439    12409    12410 1
    9440     4108     4109 1
    9441     1570     1571 1
    9442    12316    12317 1
    9443     1256     1257 1
    9444     8725     8726 1
    9445     4112     4113 1
    9446     3092     3093 1
    9447    14071    14072 1
    9448     1929     1930 1
    9449    12154    12155 1
    9450    13882    13883 1
    9451      966      967 1
    9452     6430     6431 1
    9453     7882     7883 1
    9454     6606     6607 1
    9455     4998     4999 1
    9456     6834     6835 1
    9457     2059     2060 1
    9458     4986     4987 1
    9459     7993     7995 1
    9460     6822     6823 1
    9461     2013     2014 1
    9462      825      826 1
    9463    13150    13152 1
    9464     2240     2241 1
    9465     3397     3398 1
    9466      799      800 1
    9467    12817    12819 1
    9468     5948     5951 1
    9469     6268     6267 1
    9470    11686    11688 1
    9471    11524    11526 1
    9472     8284     8286 1
    9473    10363    10365 1
    9474    14293    14294 1
    9475     3652     3631 1
    9476     5730     5731 1
    9477     6084     6086 1
    9478     4248     4250 1
    9479     3894     3895 1
    9480    11815    11817 1
    9481    12076    12078 1
    9482     4352     4353 1
    9483    10738    10740 1
    9484     7660     7662 1
    9485     6418     6419 1
    9486     4582     4583 1
    9487      453      454 1
    9488     5674     5671 1
    9489    11653    11654 1
    9490     2289     2290 1
    9491      507      508 1
    9492     2343     2344 1
    9493     3216     3217 1
    9494     2994     2995 1
    9495     2232     2233 1
    9496     1488     1489 1
    9497     1269     1270 1
    9498     3324     3325 1
    9499     2562     2563 1
    9500     5723     5724 1
    9501     2040     2039 1
    9502     2951     2952 1
    9503     7495     7497 1
    9504     5314     5313 1
    9505     5763     5764 1
    9506     3615     3616 1
    9507     6417     6418 1
    9508     6639     6640 1
    9509     5451     5452 1
    9510     5340     5341 1
    9511     1685     1686 1
    9512     4581     4582 1
    9513     6603     6605 1
    9514     4692     4693 1
    9515    12103    12105 1
    9516     7648     7649 1
    9517     6728     6729 1
    9518     4183     4184 1
    9519       62       63 1
    9520    10519    10520 1
    9521     9673     9675 1
    9522     4462     4463 1
    9523    12106    12108 1
    9524     6298     6299 1
    9525     7969     7971 1
    9526    11755    11756 1
    9527     2900     2901 1
    9528     1826     1827 1
    9529     2699     2700 1
    9530     7846     7848 1
    9531    13111    13113 1
    9532     5081     5082 1
    9533    12673    12674 1
    9534    12073    12074 1
    9535     2645     2644 1
    9536      698      697 1
    9537    10525    10526 1
    9538     5783     5782 1
    9539    12373    12374 1
    9540    13576    13577 1
    9541     8203     8204 1
    9542    12814    12815 1
    9543    10897    10898 1
    9544     7153     7154 1
    9545     5030     5031 1
    9546     2741     2742 1
    9547      872      874 1
    9548     6320     6322 1
    9549     4992     4993 1
    9550     6430     6428 1
    9551     5774     5775 1
    9552     3462     3463 1
    9553    12172    12174 1
    9554    10177    10178 1
    9555     3624     3623 1
    9556     5460     5459 1
    9557     5568     5569 1
    9558     8962     8963 1
    9559    13687    13688 1
    9560    11014    11015 1
    9561     6268     6266 1
    9562     7033     7035 1
    9563    14119    14120 1
    9564    11932    11933 1
    9565    13282    13283 1
    9566    11365    11366 1
    9567    10042    10043 1
    9568     5678     5680 1
    9569    13189    13191 1
    9570     9787     9789 1
    9571    11434    11436 1
    9572    11272    11274 1
    9573     9031     9033 1
    9574    10516    10518 1
    9575     8869     8871 1
    9576    13396    13398 1
    9577     9949     9951 1
    9578    13549    13550 1
    9579    10624    10625 1
    9580     4941     4940 1
    9581     6777     6776 1
    9582    11089    11091 1
    9583     1648     1649 1
    9584     2299     2300 1
    9585     2722     2723 1
    9586     2398     2399 1
    9587      562      563 1
    9588      463      464 1
    9589     3373     3374 1
    9590     3160     3161 1
    9591     2492     2495 1
    9592      656      659 1
    9593     3559     3560 1
    9594    12214    12216 1
    9595    14389    14391 1
    9596     7423     7425 1
    9597     5534     5535 1
    9598     4997     4998 1
    9599     6296     6297 1
    9600    14227    14229 1
    9601     6284     6285 1
    9602    12742    12744 1
    9603    10825    10827 1
    9604     4460     4461 1
    9605    14272    14274 1
    9606    12448    12450 1
    9607     1473     1475 1
    9608    11053    11055 1
    9609     3870     3872 1
    9610     5706     5708 1
    9611      876      877 1
    9612    10837    10838 1
    9613     3100     3101 1
    9614     7597     7598 1
    9615     7282     7284 1
    9616     4838     4839 1
    9617     7936     7938 1
    9618    13093    13095 1
    9619    14266    14268 1
    9620    14587    14589 1
    9621    12454    12456 1
    9622     9205     9206 1
    9623     7486     7487 1
    9624     9565     9566 1
    9625    13969    13970 1
    9626     8416     8418 1
    9627     2138     2139 1
    9628     2339     2340 1
    9629     6699     6700 1
    9630    10528    10530 1
    9631     1946     1948 1
    9632    13375    13377 1
    9633     1193     1192 1
    9634     7381     7382 1
    9635     8353     8355 1
    9636    13510    13512 1
    9637     8269     8271 1
    9638    11617    11619 1
    9639    13264    13266 1
    9640    11347    11349 1
    9641     2082     2083 1
    9642    13348    13350 1
    9643     8107     8109 1
    9644    10294    10296 1
    9645     5514     5515 1
    9646     7711     7713 1
    9647     2738     2739 1
    9648     8260     8262 1
    9649    10132    10134 1
    9650     7459     7460 1
    9651    12511    12512 1
    9652     5142     5143 1
    9653     6129     6130 1
    9654     3352     3350 1
    9655      175      196 1
    9656     5918     5919 1
    9657     5870     5871 1
    9658     4034     4035 1
    9659     6784     6785 1
    9660     3987     3986 1
    9661     3611     3612 1
    9662     3076     3077 1
    9663      159      160 1
    9664      904      905 1
    9665     1240     1241 1
    9666    11398    11399 1
    9667    10063    10064 1
    9668      489      490 1
    9669     4002     4003 1
    9670     4110     4111 1
    9671    13960    13962 1
    9672     1299     1300 1
    9673     7027     7028 1
    9674     7147     7148 1
    9675     7729     7731 1
    9676     9835     9837 1
    9677     5122     5123 1
    9678     3515     3516 1
    9679     8434     8436 1
    9680    11554    11555 1
    9681     5948     5950 1
    9682    14233    14235 1
    9683    14395    14397 1
    9684     6997     6999 1
    9685    12397    12399 1
    9686    14314    14316 1
    9687     1989     1990 1
    9688    12259    12260 1
    9689       34       13 1
    9690     1957     1958 1
    9691     5722     5721 1
    9692     6145     6144 1
    9693     4133     4134 1
    9694     5207     5208 1
    9695     4243     4244 1
    9696     6391     6392 1
    9697     5428     5429 1
    9698     3592     3593 1
    9699     5317     5318 1
    9700     6502     6503 1
    9701     4666     4667 1
    9702     6079     6080 1
    9703     2735     2736 1
    9704    13915    13917 1
    9705    10186    10187 1
    9706     1114     1115 1
    9707     3274     3275 1
    9708     6770     6771 1
    9709     4190     4191 1
    9710     6190     6169 1
    9711    11764    11766 1
    9712     1121     1120 1
    9713     2957     2956 1
    9714     3002     3003 1
    9715     1509     1510 1
    9716       92       93 1
    9717       29       30 1
    9718    14539    14541 1
    9719    14068    14069 1
    9720     8059     8061 1
    9721     2265     2266 1
    9722    14245    14247 1
    9723    14401    14403 1
    9724     8719     8720 1
    9725      886      885 1
    9726     4344     4345 1
    9727     3582     3583 1
    9728     5418     5419 1
    9729     5814     5815 1
    9730     2715     2717 1
    9731      879      881 1
    9732     3191     3190 1
    9733     4564     4565 1
    9734     4655     4656 1
    9735     5195     5196 1
    9736    11143    11144 1
    9737     7903     7904 1
    9738     9463     9464 1
    9739     5737     5738 1
    9740     4549     4550 1
    9741     3901     3902 1
    9742    14485    14487 1
    9743    12568    12570 1
    9744    12487    12489 1
    9745     7249     7251 1
    9746    10975    10977 1
    9747     7816     7818 1
    9748     4468     4469 1
    9749     5992     5993 1
    9750     1140     1141 1
    9751     4594     4591 1
    9752     5230     5231 1
    9753    13105    13106 1
    9754     5243     5244 1
    9755     7693     7694 1
    9756     3399     3400 1
    9757      261      262 1
    9758     2859     2860 1
    9759     3171     3172 1
    9760     1023     1024 1
    9761     1986     1987 1
    9762    14056    14058 1
    9763     2060     2063 1
    9764     1066     1067 1
    9765     2902     2903 1
    9766      529      530 1
    9767     2365     2366 1
    9768     1805     1806 1
    9769     3762     3764 1
    9770     5598     5600 1
    9771     4842     4844 1
    9772     3395     3396 1
    9773     8458     8460 1
    9774     6678     6680 1
    9775     1226     1227 1
    9776    10474    10475 1
    9777     3571     3572 1
    9778     5407     5408 1
    9779     9235     9237 1
    9780     1187     1188 1
    9781      985      984 1
    9782     3023     3024 1
    9783     7180     7181 1
    9784     6563     6564 1
    9785     5690     5691 1
    9786    13006    13008 1
    9787    11788    11789 1
    9788    13777    13778 1
    9789     5898     5897 1
    9790    11455    11456 1
    9791     6994     6995 1
    9792     1611     1612 1
    9793      284      285 1
    9794     9346     9347 1
    9795    10912    10913 1
    9796     7267     7268 1
    9797      392      393 1
    9798    10993    10994 1
    9799     3416     3417 1
    9800     9589     9590 1
    9801     2402     2403 1
    9802     4166     4168 1
    9803     7330     7331 1
    9804    12568    12569 1
    9805     8668     8670 1
    9806     5537     5538 1
    9807     6396     6397 1
    9808     3031     3032 1
    9809     1195     1196 1
    9810     5408     5410 1
    9811     3798     3799 1
    9812    10384    10386 1
    9813     4364     4365 1
    9814     1939     1940 1
    9815     3388     3389 1
    9816      589      590 1
    9817     2632     2633 1
    9818     1297     1300 1
    9819    11809    11810 1
    9820    13789    13790 1
    9821    11629    11630 1
    9822    10306    10307 1
    9823    12196    12197 1
    9824    13951    13952 1
    9825    13897    13898 1
    9826    11467    11468 1
    9827    14302    14303 1
    9828     1569     1570 1
    9829    12385    12386 1
    9830     6065     6066 1
    9831     4872     4873 1
    9832    11962    11964 1
    9833    13543    13545 1
    9834     5783     5784 1
    9835     3947     3948 1
    9836     3485     3486 1
    9837     5072     5073 1
    9838     3983     3984 1
    9839     6695     6696 1
    9840     6572     6573 1
    9841    14227    14228 1
    9842     4074     4073 1
    9843     1007     1008 1
    9844     6908     6909 1
    9845     6905     6906 1
    9846    13669    13671 1
    9847    11068    11069 1
    9848    10744    10745 1
    9849     7873     7875 1
    9850     8776     8778 1
    9851    12679    12681 1
    9852    12808    12809 1
    9853     5864     5865 1
    9854      234      233 1
    9855     4874     4875 1
    9856    12841    12842 1
    9857    13852    13853 1
    9858     8695     8696 1
    9859     8857     8858 1
    9860    11005    11006 1
    9861     9601     9602 1
    9862     6710     6711 1
    9863    10762    10763 1
    9864     7684     7685 1
    9865     5293     5296 1
    9866    10408    10409 1
    9867     8302     8303 1
    9868    11569    11570 1
    9869     8491     8492 1
    9870    10057    10058 1
    9871    11731    11732 1
    9872    13459    13460 1
    9873     8890     8892 1
    9874     5326     5327 1
    9875     6730     6731 1
    9876     4894     4895 1
    9877    10774    10775 1
    9878     7246     7248 1
    9879    11959    11960 1
    9880    13942    13943 1
    9881     8671     8672 1
    9882    11233    11234 1
    9883     1550     1551 1
    9884     8269     8270 1
    9885    12097    12099 1
    9886     9358     9360 1
    9887    14515    14517 1
    9888     7360     7362 1
    9889    12178    12180 1
    9890    12436    12438 1
    9891    14095    14097 1
    9892     6095     6096 1
    9893     5222     5223 1
    9894     4253     4254 1
    9895     4259     4260 1
    9896     5021     5022 1
    9897    10438    10439 1
    9898     1794     1795 1
    9899     1743     1745 1
    9900    10543    10545 1
    9901     3302     3304 1
    9902     2431     2434 1
    9903    10549    10550 1
    9904     7207     7208 1
    9905    12256    12257 1
    9906    14578    14579 1
    9907    14254    14255 1
    9908    12337    12338 1
    9909    14173    14174 1
    9910    10501    10502 1
    9911     6170     6169 1
    9912     9097     9098 1
    9913    14335    14336 1
    9914    12418    12419 1
    9915    14134    14136 1
    9916     8977     8979 1
    9917    12217    12219 1
    9918    12055    12057 1
    9919    13972    13974 1
    9920     8815     8817 1
    9921     5914     5915 1
    9922     6091     6092 1
    9923     3718     3719 1
    9924      348      349 1
    9925      140      141 1
    9926     4255     4256 1
    9927     3258     3259 1
    9928     1758     1759 1
    9929    14029    14030 1
    9930     1422     1423 1
    9931     5357     5358 1
    9932     3298     3299 1
    9933    12364    12365 1
    9934     1321     1322 1
    9935     1651     1652 1
    9936     3376     3377 1
    9937     3157     3158 1
    9938     8533     8534 1
    9939     2752     2753 1
    9940     3535     3536 1
    9941     4831     4832 1
    9942     3757     3758 1
    9943     4297     4298 1
    9944     3554     3555 1
    9945    14524    14526 1
    9946    10285    10287 1
    9947    11608    11610 1
    9948     7450     7452 1
    9949     8530     8532 1
    9950    12607    12609 1
    9951     9367     9369 1
    9952    12445    12447 1
    9953    11278    11279 1
    9954     9604     9605 1
    9955     6838     6817 1
    9956    10537    10539 1
    9957     9391     9393 1
    9958     1877     1876 1
    9959      148      147 1
    9960     7243     7245 1
    9961    14236    14237 1
    9962      684      686 1
    9963     2520     2522 1
    9964     1624     1625 1
    9965     5242     5243 1
    9966     5700     5701 1
    9967     4176     4177 1
    9968     5176     5177 1
    9969     5824     5825 1
    9970      653      654 1
    9971    10006    10008 1
    9972     3988     3989 1
    9973     5398     5399 1
    9974     3728     3730 1
    9975     2750     2751 1
    9976     3245     3246 1
    9977    10618    10619 1
    9978     6777     6778 1
    9979     5381     5382 1
    9980     4733     4734 1
    9981     6740     6739 1
    9982     6919     6920 1
    9983     5111     5112 1
    9984    12211    12212 1
    9985    13171    13173 1
    9986    13765    13767 1
    9987    13603    13605 1
    9988     8446     8448 1
    9989     9931     9933 1
    9990    13333    13335 1
    9991    11848    11850 1
    9992     8608     8610 1
    9993    11254    11256 1
    9994    11092    11094 1
    9995     4101     4102 1
    9996     6249     6250 1
    9997     4413     4414 1
    9998     8917     8919 1
    9999     5767     5768 1
   10000     1638     1639 1
   10001     3458     3460 1
   10002     4669     4670 1
   10003      165      166 1
   10004     6797     6798 1
   10005     4088     4089 1
   10006      315      314 1
   10007     2262     2261 1
   10008    12613    12615 1
   10009     6973     6975 1
   10010    10291    10293 1
   10011    14530    14532 1
   10012     7093     7095 1
   10013     9373     9375 1
   10014     8536     8538 1
   10015     7456     7458 1
   10016    12451    12453 1
   10017    11614    11616 1
   10018     6096     6097 1
   10019     4260     4261 1
   10020     4803     4804 1
   10021     5115     5116 1
   10022     6528     6529 1
   10023     6063     6065 1
   10024     4227     4229 1
   10025    12319    12320 1
   10026      719      720 1
   10027     9460     9461 1
   10028     4672     4673 1
   10029     5746     5747 1
   10030     4015     4016 1
   10031     6619     6620 1
   10032     7633     7634 1
   10033     5857     5858 1
   10034     2577     2578 1
   10035    13423    13424 1
   10036     5962     5963 1
   10037     5095     5096 1
   10038     1844     1846 1
   10039    11320    11322 1
   10040      660      661 1
   10041     9619     9621 1
   10042    12250    12252 1
   10043    10495    10497 1
   10044    14329    14331 1
   10045    11899    11901 1
   10046     8659     8661 1
   10047     8740     8742 1
   10048    11980    11982 1
   10049    12331    12333 1
   10050     9091     9093 1
   10051    14167    14169 1
   10052     8194     8196 1
   10053     4269     4270 1
   10054     6537     6538 1
   10055     4701     4702 1
   10056     5736     5735 1
   10057     3533     3534 1
   10058     6105     6106 1
   10059     3900     3899 1
   10060    10105    10107 1
   10061    11266    11267 1
   10062    13114    13116 1
   10063      470      471 1
   10064    11803    11804 1
   10065     2788     2789 1
   10066     2236     2237 1
   10067     3430     3431 1
   10068     4342     4343 1
   10069    11563    11564 1
   10070     4865     4866 1
   10071     2920     2921 1
   10072     1084     1085 1
   10073     2090     2091 1
   10074     6752     6754 1
   10075     5456     5458 1
   10076     8290     8292 1
   10077     8116     8118 1
   10078    10099    10101 1
   10079    13165    13167 1
   10080    10369    10371 1
   10081     8020     8022 1
   10082     9925     9927 1
   10083    10195    10197 1
   10084    11530    11532 1
   10085    13327    13329 1
   10086     5652     5653 1
   10087     1126     1127 1
   10088     2968     2969 1
   10089     2206     2207 1
   10090     1132     1133 1
   10091    13798    13799 1
   10092     3654     3655 1
   10093    11557    11558 1
   10094     9982     9983 1
   10095     4711     4712 1
   10096      710      713 1
   10097     2546     2549 1
   10098     7786     7787 1
   10099    11095    11096 1
   10100    14239    14240 1
   10101    12025    12026 1
   10102    10102    10103 1
   10103     8500     8501 1
   10104     9256     9257 1
   10105     3501     3500 1
   10106    10174    10176 1
   10107     3291     3292 1
   10108     1455     1456 1
   10109      807      808 1
   10110     1344     1345 1
   10111     3078     3077 1
   10112     1242     1241 1
   10113     2955     2956 1
   10114     1767     1768 1
   10115     1093     1094 1
   10116     1119     1120 1
   10117     5618     5620 1
   10118     2990     2991 1
   10119     2777     2778 1
   10120      715      716 1
   10121     5204     5205 1
   10122     1265     1266 1
   10123     2551     2552 1
   10124      663      665 1
   10125     3055     3056 1
   10126     3978     3980 1
   10127     2675     2676 1
   10128     1229     1230 1
   10129     3065     3066 1
   10130      368      369 1
   10131     5814     5816 1
   10132     3322     3323 1
   10133     3319     3320 1
   10134      409      410 1
   10135     2245     2246 1
   10136     1483     1484 1
   10137     1486     1487 1
   10138     1610     1611 1
   10139     3008     3009 1
   10140     1934     1935 1
   10141     3502     3503 1
   10142     2246     2247 1
   10143     7231     7233 1
   10144     5030     5033 1
   10145     2312     2311 1
   10146      476      475 1
   10147     7717     7718 1
   10148     7879     7880 1
   10149    10957    10958 1
   10150     8095     8096 1
   10151     5619     5620 1
   10152    13252    13253 1
   10153     4267     4270 1
   10154     1082     1084 1
   10155    11497    11498 1
   10156    10012    10013 1
   10157    10561    10562 1
   10158    10642    10643 1
   10159    14476    14477 1
   10160      608      609 1
   10161     7321     7322 1
   10162     9157     9158 1
   10163    12559    12560 1
   10164     9400     9401 1
   10165     2196     2197 1
   10166     9076     9077 1
   10167     2907     2908 1
   10168     4849     4850 1
   10169     6796     6797 1
   10170     6574     6575 1
   10171     3886     3887 1
   10172    14335    14337 1
   10173     4960     4961 1
   10174     2057     2058 1
   10175     8674     8676 1
   10176     2299     2298 1
   10177      463      462 1
   10178     8428     8430 1
   10179     1797     1798 1
   10180     1843     1844 1
   10181    12625    12627 1
   10182     4098     4097 1
   10183     5281     5282 1
   10184     5651     5652 1
   10185    13888    13889 1
   10186     8767     8768 1
   10187     9010     9011 1
   10188    12088    12089 1
   10189     4704     4705 1
   10190     5028     5029 1
   10191     4192     4171 1
   10192     9172     9173 1
   10193     3561     3562 1
   10194    14086    14087 1
   10195     6547     6548 1
   10196    13708    13709 1
   10197     5946     5947 1
   10198     4236     4237 1
   10199     5838     5839 1
   10200      224      225 1
   10201     6631     6632 1
   10202     6520     6521 1
   10203     4684     4685 1
   10204     3721     3722 1
   10205     3426     3427 1
   10206     1479     1480 1
   10207       15       16 1
   10208     1590     1591 1
   10209    14083    14084 1
   10210     4163     4164 1
   10211     5033     5034 1
   10212     6323     6324 1
   10213     5999     6000 1
   10214     2195     2196 1
   10215     1548     1549 1
   10216     7048     7050 1
   10217     7168     7170 1
   10218     6670     6671 1
   10219     4834     4835 1
   10220    11248    11250 1
   10221     3532     3533 1
   10222     4781     4782 1
   10223     4886     4887 1
   10224     3307     3308 1
   10225     5855     5856 1
   10226     1854     1853 1
   10227     2135     2136 1
   10228     3812     3813 1
   10229     3209     3210 1
   10230     1098     1097 1
   10231     4019     4020 1
   10232     8143     8144 1
   10233     6177     6178 1
   10234      587      588 1
   10235     2198     2199 1
   10236     4973     4974 1
   10237      911      912 1
   10238      362      363 1
   10239    10834    10836 1
   10240     4652     4653 1
   10241     5378     5379 1
   10242     5156     5157 1
   10243     4724     4725 1
   10244     1808     1809 1
   10245     7525     7527 1
   10246     9793     9795 1
   10247     4863     4864 1
   10248     7327     7328 1
   10249     3345     3346 1
   10250      890      891 1
   10251     1859     1860 1
   10252    10870    10871 1
   10253     5780     5782 1
   10254     8827     8828 1
   10255     4233     4234 1
   10256     5106     5107 1
   10257     6180     6181 1
   10258    13078    13079 1
   10259     3932     3933 1
   10260     6086     6087 1
   10261     4250     4251 1
   10262     4049     4050 1
   10263     4025     4026 1
   10264     5209     5210 1
   10265     5959     5960 1
   10266     7222     7224 1
   10267    14230    14231 1
   10268    10843    10845 1
   10269     7390     7391 1
   10270     4603     4604 1
   10271     7192     7193 1
   10272     4845     4846 1
   10273     6952     6953 1
   10274     6608     6609 1
   10275    13858    13859 1
   10276    13939    13940 1
   10277    10999    11000 1
   10278     9595     9596 1
   10279    12835    12836 1
   10280     9514     9515 1
   10281     8863     8864 1
   10282     9637     9638 1
   10283     3950     3952 1
   10284    11041    11042 1
   10285     5786     5788 1
   10286      645      646 1
   10287     2004     2005 1
   10288    14584    14585 1
   10289     1968     1969 1
   10290     3042     3043 1
   10291     1206     1207 1
   10292      894      895 1
   10293    10813    10814 1
   10294     4196     4197 1
   10295     5831     5832 1
   10296     6032     6033 1
   10297     3995     3996 1
   10298    10423    10425 1
   10299    13123    13125 1
   10300    13144    13146 1
   10301     8254     8256 1
   10302     8314     8316 1
   10303    13471    13473 1
   10304    14200    14202 1
   10305    13309    13311 1
   10306    10231    10233 1
   10307    12517    12519 1
   10308    10069    10071 1
   10309     1243     1246 1
   10310    12121    12123 1
   10311    14038    14040 1
   10312     3079     3082 1
   10313     4420     4421 1
   10314    14419    14421 1
   10315     4410     4412 1
   10316     6246     6248 1
   10317     1340     1341 1
   10318     1346     1347 1
   10319    11026    11028 1
   10320     1092     1093 1
   10321    11203    11204 1
   10322    14020    14021 1
   10323    13717    13719 1
   10324      416      417 1
   10325     8875     8876 1
   10326     4389     4391 1
   10327     3677     3678 1
   10328      133      134 1
   10329     1001     1002 1
   10330        8       10 1
   10331     1214     1215 1
   10332     2837     2838 1
   10333      198      200 1
   10334     4716     4717 1
   10335     5265     5266 1
   10336    11491    11493 1
   10337     6552     6553 1
   10338     2813     2814 1
   10339      977      978 1
   10340     6663     6664 1
   10341     5240     5242 1
   10342     4404     4405 1
   10343     6114     6115 1
   10344     6994     6996 1
   10345     6413     6414 1
   10346     4577     4578 1
   10347     5126     5127 1
   10348     5339     5340 1
   10349     4265     4266 1
   10350     4522     4523 1
   10351     9241     9242 1
   10352      541      544 1
   10353     2574     2575 1
   10354     5143     5144 1
   10355     1850     1851 1
   10356      738      739 1
   10357     4980     4981 1
   10358     5304     5305 1
   10359     8494     8496 1
   10360    14311    14313 1
   10361     7171     7172 1
   10362     6931     6932 1
   10363     3140     3141 1
   10364     3084     3085 1
   10365     1248     1249 1
   10366     1789     1790 1
   10367    11194    11195 1
   10368     5141     5142 1
   10369     3992     3993 1
   10370     4304     4305 1
   10371     3779     3780 1
   10372     6140     6141 1
   10373     5615     5616 1
   10374     5198     5199 1
   10375    11965    11967 1
   10376    14368    14370 1
   10377    14206    14208 1
   10378    10696    10698 1
   10379    12289    12291 1
   10380     9211     9213 1
   10381    12127    12129 1
   10382    14044    14046 1
   10383     7294     7296 1
   10384     1577     1578 1
   10385     3413     3414 1
   10386    14443    14444 1
   10387     6176     6177 1
   10388      771      772 1
   10389     3913     3914 1
   10390     5749     5750 1
   10391     3694     3695 1
   10392     5419     5420 1
   10393     2816     2818 1
   10394     7069     7070 1
   10395    14218    14219 1
   10396     3583     3584 1
   10397      980      982 1
   10398    13294    13296 1
   10399     9037     9039 1
   10400    13195    13197 1
   10401     9955     9957 1
   10402    13762    13764 1
   10403    11440    11442 1
   10404    12844    12846 1
   10405     9442     9444 1
   10406     2870     2871 1
   10407    13600    13602 1
   10408    11278    11280 1
   10409    14188    14190 1
   10410      926      927 1
   10411     2762     2763 1
   10412     2686     2687 1
   10413     3837     3838 1
   10414    13429    13431 1
   10415     4246     4225 1
   10416     2495     2496 1
   10417      659      660 1
   10418    14308    14310 1
   10419    10297    10298 1
   10420     7918     7919 1
   10421    13537    13538 1
   10422      812      814 1
   10423     2648     2650 1
   10424     6991     6993 1
   10425      423      424 1
   10426       17       18 1
   10427     1497     1498 1
   10428     2020     2021 1
   10429     3333     3334 1
   10430    12409    12411 1
   10431     5333     5334 1
   10432     6892     6893 1
   10433     5436     5437 1
   10434     6656     6657 1
   10435     1062     1063 1
   10436     6383     6384 1
   10437     4547     4548 1
   10438     2466     2467 1
   10439     4436     4437 1
   10440     6306     6305 1
   10441     7111     7112 1
   10442     5894     5896 1
   10443     4767     4768 1
   10444     6542     6544 1
   10445     2114     2117 1
   10446     6277     6278 1
   10447     6937     6939 1
   10448     8584     8586 1
   10449    11866    11868 1
   10450    13621    13623 1
   10451     1572     1573 1
   10452     3408     3409 1
   10453    11704    11706 1
   10454    10381    10383 1
   10455     4900     4901 1
   10456     4687     4688 1
   10457     8464     8466 1
   10458     6736     6737 1
   10459     6523     6524 1
   10460    12778    12780 1
   10461     5522     5523 1
   10462      121      122 1
   10463     6888     6887 1
   10464     5052     5051 1
   10465     4296     4295 1
   10466    10330    10332 1
   10467     2319     2320 1
   10468     3390     3391 1
   10469     7108     7110 1
   10470      795      796 1
   10471     3279     3280 1
   10472     1443     1444 1
   10473     1714     1715 1
   10474     2074     2075 1
   10475     2476     2477 1
   10476    10354    10355 1
   10477     1540     1541 1
   10478       96       97 1
   10479     3036     3037 1
   10480    12631    12633 1
   10481    12349    12350 1
   10482     1308     1307 1
   10483    12388    12390 1
   10484     6595     6596 1
   10485     2480     2481 1
   10486    12973    12975 1
   10487    10519    10521 1
   10488    12724    12725 1
   10489     6767     6765 1
   10490    10042    10044 1
   10491     4281     4283 1
   10492    14047    14049 1
   10493     9757     9758 1
   10494    12457    12458 1
   10495    12856    12857 1
   10496     9616     9617 1
   10497     7699     7700 1
   10498     9454     9455 1
   10499     8617     8618 1
   10500    13774    13775 1
   10501     6272     6273 1
   10502    13612    13613 1
   10503    10777    10778 1
   10504     7537     7538 1
   10505      119      120 1
   10506     3478     3479 1
   10507     5713     5714 1
   10508     3766     3767 1
   10509     5602     5603 1
   10510     3877     3878 1
   10511     4776     4777 1
   10512     4452     4453 1
   10513     1365     1366 1
   10514     1411     1412 1
   10515     2923     2924 1
   10516     3201     3202 1
   10517     6612     6613 1
   10518     4935     4936 1
   10519     7297     7298 1
   10520    12814    12816 1
   10521     3247     3248 1
   10522     5327     5328 1
   10523     3492     3493 1
   10524     4220     4223 1
   10525     6056     6059 1
   10526     1945     1948 1
   10527    11362    11364 1
   10528    13009    13011 1
   10529    10930    10932 1
   10530    10039    10041 1
   10531    13279    13281 1
   10532     9769     9771 1
   10533     7852     7854 1
   10534     7960     7962 1
   10535    13117    13119 1
   10536    12238    12240 1
   10537      780      781 1
   10538     2616     2617 1
   10539     2622     2623 1
   10540     1380     1381 1
   10541      294      295 1
   10542     1692     1693 1
   10543       74       75 1
   10544     2241     2242 1
   10545      405      406 1
   10546     9817     9818 1
   10547    11956    11958 1
   10548    12391    12392 1
   10549     2303     2304 1
   10550    14101    14103 1
   10551    12967    12968 1
   10552     1163     1164 1
   10553     2175     2176 1
   10554     3085     3086 1
   10555     1203     1204 1
   10556     3039     3040 1
   10557     6570     6571 1
   10558     8332     8333 1
   10559    13825    13826 1
   10560    10249    10250 1
   10561    13489    13490 1
   10562    11584    11585 1
   10563    11746    11747 1
   10564    11410    11411 1
   10565     7792     7793 1
   10566      393      395 1
   10567     1567     1570 1
   10568     4933     4934 1
   10569    12004    12005 1
   10570     2734     2735 1
   10571     3814     3815 1
   10572      406      407 1
   10573     1693     1694 1
   10574      832      833 1
   10575     2347     2348 1
   10576     1705     1706 1
   10577      400      401 1
   10578     1535     1536 1
   10579      619      620 1
   10580      295      296 1
   10581     3496     3497 1
   10582     7255     7256 1
   10583      323      324 1
   10584     4161     4162 1
   10585     6782     6783 1
   10586     5369     5370 1
   10587    11509    11511 1
   10588     5268     5269 1
   10589    11722    11724 1
   10590     5131     5134 1
   10591    14482    14483 1
   10592     3676     3677 1
   10593     8590     8591 1
   10594     7159     7161 1
   10595    12976    12977 1
   10596     8803     8804 1
   10597     3082     3083 1
   10598     4808     4810 1
   10599     6644     6646 1
   10600     6104     6106 1
   10601     6066     6067 1
   10602     8614     8616 1
   10603    10261    10263 1
   10604    10924    10926 1
   10605     8452     8454 1
   10606    13003    13005 1
   10607     6197     6198 1
   10608     5447     5448 1
   10609     8344     8346 1
   10610    13663    13665 1
   10611     5380     5381 1
   10612     9247     9249 1
   10613    10627    10628 1
   10614    11062    11063 1
   10615    10957    10959 1
   10616     8485     8486 1
   10617    12643    12644 1
   10618    14362    14363 1
   10619    12283    12284 1
   10620    14131    14132 1
   10621    10690    10691 1
   10622     8206     8207 1
   10623    10123    10124 1
   10624    11887    11888 1
   10625     9730     9731 1
   10626       62       64 1
   10627     2952     2954 1
   10628    10063    10065 1
   10629     4039     4040 1
   10630     5551     5552 1
   10631     3715     3716 1
   10632     5338     5339 1
   10633    11056    11057 1
   10634     9220     9221 1
   10635     1716     1715 1
   10636     2685     2684 1
   10637     2281     2282 1
   10638      769      770 1
   10639     2065     2066 1
   10640     4189     4190 1
   10641     4501     4502 1
   10642     4433     4434 1
   10643     6158     6160 1
   10644     1274     1275 1
   10645     6398     6399 1
   10646      607      608 1
   10647    11905    11907 1
   10648     8746     8748 1
   10649    11986    11988 1
   10650      725      726 1
   10651     4562     4563 1
   10652      614      615 1
   10653     8665     8667 1
   10654     2660     2659 1
   10655     9853     9855 1
   10656    13609    13610 1
   10657     2518     2519 1
   10658        4        5 1
   10659     6493     6492 1
   10660     3514     3512 1
   10661    11884    11885 1
   10662     5048     5049 1
   10663     6671     6672 1
   10664     8419     8420 1
   10665     8581     8582 1
   10666     8041     8042 1
   10667     8365     8366 1
   10668     8743     8744 1
   10669     9634     9635 1
   10670     2603     2604 1
   10671    13804    13806 1
   10672    11119    11120 1
   10673    13522    13523 1
   10674     7810     7812 1
   10675     9244     9245 1
   10676       36       38 1
   10677     8734     8735 1
   10678     4185     4186 1
   10679     5148     5149 1
   10680     5722     5723 1
   10681     6367     6368 1
   10682     5494     5495 1
   10683     3855     3856 1
   10684     3658     3659 1
   10685     5259     5260 1
   10686     6021     6022 1
   10687     6564     6565 1
   10688     6034     6035 1
   10689     6145     6146 1
   10690    14344    14345 1
   10691    14347    14348 1
   10692    13936    13937 1
   10693     4907     4908 1
   10694     6425     6426 1
   10695     1470     1471 1
   10696     6045     6044 1
   10697     4209     4208 1
   10698     3815     3816 1
   10699    10483    10484 1
   10700     6491     6492 1
   10701     5951     5952 1
   10702     3575     3576 1
   10703    11212    11213 1
   10704     9889     9890 1
   10705     3544     3523 1
   10706     5380     5359 1
   10707     6648     6649 1
   10708     4812     4813 1
   10709     5352     5353 1
   10710     1677     1678 1
   10711     5391     5392 1
   10712     5652     5654 1
   10713     6054     6055 1
   10714     4218     4219 1
   10715     1194     1195 1
   10716     3030     3031 1
   10717     8182     8184 1
   10718     6919     6921 1
   10719     3027     3028 1
   10720    11806    11808 1
   10721     7705     7706 1
   10722     8593     8594 1
   10723     7903     7905 1
   10724     5917     5918 1
   10725     5335     5336 1
   10726     9688     9690 1
   10727     4478     4479 1
   10728     3989     3990 1
   10729     5825     5826 1
   10730    10219    10220 1
   10731     1816     1795 1
   10732     9670     9672 1
   10733    12910    12912 1
   10734    10750    10752 1
   10735     6056     6058 1
   10736     9508     9510 1
   10737    11074    11076 1
   10738    12748    12750 1
   10739    10831    10833 1
   10740    10669    10671 1
   10741     7591     7593 1
   10742     9169     9170 1
   10743     9370     9371 1
   10744    12085    12086 1
   10745     6354     6355 1
   10746    14257    14258 1
   10747      281      282 1
   10748     3795     3797 1
   10749    13051    13052 1
   10750     1799     1800 1
   10751     3590     3591 1
   10752     5744     5745 1
   10753      611      612 1
   10754     4670     4671 1
   10755     4129     4130 1
   10756     5965     5966 1
   10757     5426     5427 1
   10758      824      823 1
   10759     9316     9317 1
   10760    13219    13220 1
   10761    12301    12302 1
   10762    14056    14057 1
   10763     7738     7739 1
   10764     8899     8900 1
   10765     2600     2602 1
   10766     8236     8237 1
   10767     5266     5267 1
   10768     9166     9167 1
   10769     9004     9005 1
   10770    14080    14081 1
   10771    12082    12083 1
   10772     8761     8762 1
   10773     1445     1446 1
   10774     2531     2532 1
   10775     2861     2862 1
   10776     3392     3393 1
   10777    12163    12164 1
   10778      695      696 1
   10779    14140    14142 1
   10780     8551     8553 1
   10781     8983     8985 1
   10782     8821     8823 1
   10783    12061    12063 1
   10784    13978    13980 1
   10785     1790     1791 1
   10786    12223    12225 1
   10787    10171    10172 1
   10788     5267     5268 1
   10789     8296     8298 1
   10790    11512    11513 1
   10791     6730     6709 1
   10792    10663    10665 1
   10793    11458    11459 1
   10794     9997     9998 1
   10795     1892     1894 1
   10796     7135     7137 1
   10797     2079     2080 1
   10798     1824     1825 1
   10799       32       33 1
   10800     1830     1831 1
   10801     7897     7899 1
   10802      101      102 1
   10803       55       58 1
   10804    11788    11790 1
   10805    12292    12294 1
   10806     6507     6508 1
   10807     3909     3910 1
   10808     4878     4879 1
   10809     5640     5641 1
   10810     6714     6715 1
   10811     3306     3307 1
   10812     5751     5752 1
   10813     3464     3467 1
   10814     4928     4929 1
   10815     6332     6333 1
   10816     4496     4497 1
   10817     6516     6517 1
   10818     6084     6085 1
   10819     1993     1994 1
   10820      262      263 1
   10821     1336     1337 1
   10822     5425     5426 1
   10823     4675     4676 1
   10824     2015     2013 1
   10825     9061     9062 1
   10826    12394    12395 1
   10827    10735    10736 1
   10828     7657     7658 1
   10829     7906     7907 1
   10830    11197    11198 1
   10831     4920     4921 1
   10832     5244     5245 1
   10833     4927     4928 1
   10834     7024     7025 1
   10835     4533     4534 1
   10836     5715     5716 1
   10837     4116     4117 1
   10838    12676    12678 1
   10839     6866     6868 1
   10840     6002     6004 1
   10841    13336    13337 1
   10842    12658    12659 1
   10843     6863     6864 1
   10844     5298     5297 1
   10845     8278     8279 1
   10846      952      931 1
   10847     8866     8868 1
   10848     1671     1672 1
   10849     7036     7038 1
   10850      189      190 1
   10851      909      910 1
   10852      798      799 1
   10853     3396     3397 1
   10854     3124     3125 1
   10855     2698     2699 1
   10856     2077     2078 1
   10857     3235     3236 1
   10858     1180     1181 1
   10859       99      100 1
   10860     2234     2235 1
   10861     1811     1812 1
   10862     1543     1544 1
   10863     2587     2588 1
   10864     7729     7730 1
   10865      398      399 1
   10866     6157     6160 1
   10867     6916     6917 1
   10868     3068     3069 1
   10869      626      627 1
   10870     1232     1233 1
   10871    10450    10451 1
   10872    11665    11666 1
   10873    10513    10514 1
   10874    11713    11715 1
   10875     1940     1941 1
   10876     2905     2906 1
   10877    10774    10776 1
   10878     4966     4967 1
   10879    14137    14138 1
   10880    11227    11228 1
   10881     7987     7988 1
   10882    14143    14144 1
   10883     2819     2820 1
   10884    13981    13982 1
   10885     5901     5903 1
   10886     8986     8987 1
   10887     4065     4067 1
   10888     9742     9743 1
   10889    13144    13145 1
   10890     2032     2011 1
   10891     3459     3460 1
   10892     2796     2797 1
   10893     2336     2337 1
   10894      350      351 1
   10895    10021    10022 1
   10896     8185     8186 1
   10897     2148     2149 1
   10898     8266     8267 1
   10899     8023     8024 1
   10900     2228     2229 1
   10901      417      418 1
   10902      344      345 1
   10903      776      777 1
   10904     3982     3983 1
   10905     6904     6905 1
   10906     5179     5180 1
   10907     5068     5069 1
   10908     1605     1606 1
   10909     8671     8673 1
   10910      285      286 1
   10911     1689     1690 1
   10912     1735     1736 1
   10913     4093     4094 1
   10914    13540    13542 1
   10915     4652     4655 1
   10916     8323     8324 1
   10917    13480    13481 1
   10918     5624     5626 1
   10919     7876     7877 1
   10920     9118     9119 1
   10921     8713     8714 1
   10922     7552     7553 1
   10923     9280     9281 1
   10924     7714     7715 1
   10925     8389     8390 1
   10926    12871    12872 1
   10927     2822     2823 1
   10928    10954    10955 1
   10929      986      987 1
   10930      522      523 1
   10931     2606     2607 1
   10932       53       54 1
   10933     6162     6163 1
   10934     1557     1558 1
   10935     4326     4327 1
   10936     8836     8838 1
   10937     1628     1629 1
   10938      459      460 1
   10939      246      247 1
   10940      939      940 1
   10941     2775     2776 1
   10942      568      569 1
   10943     1812     1813 1
   10944     2886     2887 1
   10945     6143     6144 1
   10946     6803     6804 1
   10947     9202     9204 1
   10948    12982    12984 1
   10949    11950    11952 1
   10950    14029    14031 1
   10951     6852     6853 1
   10952     4794     4795 1
   10953     5979     5980 1
   10954     4143     4144 1
   10955     5016     5017 1
   10956     2117     2118 1
   10957      967      968 1
   10958    12517    12518 1
   10959     9196     9197 1
   10960    14176    14177 1
   10961    12610    12611 1
   10962    10504    10505 1
   10963    10612    10613 1
   10964    12274    12275 1
   10965     1952     1954 1
   10966    14527    14528 1
   10967    12691    12692 1
   10968     2364     2365 1
   10969     9706     9707 1
   10970     7627     7628 1
   10971     8626     8627 1
   10972     8788     8789 1
   10973    12946    12947 1
   10974     2417     2418 1
   10975     3290     3291 1
   10976    12913    12915 1
   10977     6190     6191 1
   10978     8872     8873 1
   10979     7345     7346 1
   10980     1343     1344 1
   10981    14023    14025 1
   10982    11029    11031 1
   10983     8923     8924 1
   10984    13135    13137 1
   10985    12916    12918 1
   10986     9604     9606 1
   10987    13990    13991 1
   10988      520      521 1
   10989     8503     8505 1
   10990     5253     5255 1
   10991     4713     4715 1
   10992     6549     6551 1
   10993     1894     1895 1
   10994     4972     4973 1
   10995     5404     5405 1
   10996     2157     2158 1
   10997    10336    10337 1
   10998     2720     2721 1
   10999      884      885 1
   11000     1757     1758 1
   11001    12961    12962 1
   11002     4162     4163 1
   11003     2489     2490 1
   11004    13984    13985 1
   11005     4242     4243 1
   11006     6390     6391 1
   11007      125      123 1
   11008     5316     5317 1
   11009     6078     6079 1
   11010     6494     6495 1
   11011     1682     1684 1
   11012    10012    10014 1
   11013    11335    11337 1
   11014     3281     3282 1
   11015    11779    11780 1
   11016     9136     9137 1
   11017    10051    10052 1
   11018    11404    11405 1
   11019     9676     9677 1
   11020    12538    12539 1
   11021    13483    13484 1
   11022    10243    10244 1
   11023     4706     4708 1
   11024    14455    14456 1
   11025     4058     4060 1
   11026    10057    10059 1
   11027     8491     8493 1
   11028     8302     8304 1
   11029    10219    10221 1
   11030    11569    11571 1
   11031    11731    11733 1
   11032    13459    13461 1
   11033    13297    13299 1
   11034      131      132 1
   11035     1854     1855 1
   11036     7123     7125 1
   11037    12571    12572 1
   11038     1866     1867 1
   11039      643      644 1
   11040     8884     8885 1
   11041     5501     5502 1
   11042     1600     1579 1
   11043     6263     6264 1
   11044     3665     3666 1
   11045     6251     6252 1
   11046     6464     6465 1
   11047     6021     6020 1
   11048     4185     4184 1
   11049     8197     8198 1
   11050      224      227 1
   11051     5938     5939 1
   11052     2132     2133 1
   11053     1058     1059 1
   11054     2894     2895 1
   11055      296      297 1
   11056     1370     1371 1
   11057     3110     3111 1
   11058     4626     4628 1
   11059     5321     5322 1
   11060     6462     6464 1
   11061     9838     9840 1
   11062     8701     8702 1
   11063     2302     2303 1
   11064     7633     7635 1
   11065    13639    13640 1
   11066     2792     2793 1
   11067     3755     3756 1
   11068     3968     3969 1
   11069     5804     5805 1
   11070     5591     5592 1
   11071     9106     9108 1
   11072     7288     7289 1
   11073    12052    12053 1
   11074    14560    14561 1
   11075    11752    11753 1
   11076      380      382 1
   11077    13954    13955 1
   11078     3047     3048 1
   11079     2285     2286 1
   11080      248      249 1
   11081     2827     2828 1
   11082     4080     4081 1
   11083     5580     5581 1
   11084     5472     5473 1
   11085     5046     5047 1
   11086     3969     3970 1
   11087     3744     3745 1
   11088     5805     5806 1
   11089     4392     4393 1
   11090     3747     3748 1
   11091     5157     5158 1
   11092    12079    12080 1
   11093     3738     3739 1
   11094     5574     5575 1
   11095     4085     4086 1
   11096     5922     5923 1
   11097     9439     9440 1
   11098      625      626 1
   11099      370      371 1
   11100      150      151 1
   11101     3280     3281 1
   11102     7894     7895 1
   11103    11134    11135 1
   11104     3760     3739 1
   11105     5596     5575 1
   11106     6432     6433 1
   11107     8497     8498 1
   11108     6363     6364 1
   11109     5601     5602 1
   11110     4314     4315 1
   11111     3765     3766 1
   11112     4527     4528 1
   11113    11557    11559 1
   11114     6150     6151 1
   11115     7075     7076 1
   11116    11134    11136 1
   11117     2351     2352 1
   11118     9982     9984 1
   11119     5116     5117 1
   11120      234      235 1
   11121     3553     3554 1
   11122     4118     4119 1
   11123     5851     5852 1
   11124     5675     5676 1
   11125     6437     6438 1
   11126     3839     3840 1
   11127     3845     3846 1
   11128     9562     9564 1
   11129    10885    10887 1
   11130    10723    10725 1
   11131    12640    12642 1
   11132     4652     4654 1
   11133     7483     7485 1
   11134    14557    14559 1
   11135    12721    12723 1
   11136     9481     9483 1
   11137     9319     9321 1
   11138     5769     5770 1
   11139     5880     5881 1
   11140     6306     6307 1
   11141     4044     4045 1
   11142      337      338 1
   11143     4470     4471 1
   11144     8287     8288 1
   11145     5420     5421 1
   11146     3584     3585 1
   11147     3917     3918 1
   11148     4348     4349 1
   11149     6184     6185 1
   11150     5311     5312 1
   11151    12952    12953 1
   11152    11692    11694 1
   11153     2661     2663 1
   11154     9457     9459 1
   11155    10159    10161 1
   11156     8233     8234 1
   11157        2        4 1
   11158     5565     5566 1
   11159     5477     5478 1
   11160      599      600 1
   11161     2201     2200 1
   11162     5943     5944 1
   11163     6278     6279 1
   11164     4271     4270 1
   11165     6107     6106 1
   11166    11902    11903 1
   11167    12505    12506 1
   11168    12622    12624 1
   11169      949      950 1
   11170    12328    12330 1
   11171    10996    10998 1
   11172    14158    14160 1
   11173     9295     9297 1
   11174    11782    11784 1
   11175     7297     7299 1
   11176     5087     5088 1
   11177     4146     4147 1
   11178     4597     4598 1
   11179     4873     4874 1
   11180     9934     9935 1
   11181      210      211 1
   11182    13708    13710 1
   11183      252      253 1
   11184     2253     2254 1
   11185     2080     2081 1
   11186    13036    13038 1
   11187     3140     3143 1
   11188     2044     2045 1
   11189     2482     2483 1
   11190     5929     5930 1
   11191     1933     1934 1
   11192     3267     3266 1
   11193     1431     1430 1
   11194      675      674 1
   11195     3295     3298 1
   11196    10090    10091 1
   11197     8533     8535 1
   11198      838      839 1
   11199     9151     9152 1
   11200     6765     6766 1
   11201     4975     4976 1
   11202     8143     8145 1
   11203     4721     4722 1
   11204     6233     6234 1
   11205     4610     4611 1
   11206     5807     5808 1
   11207     8086     8087 1
   11208     9811     9812 1
   11209     6717     6716 1
   11210     4881     4880 1
   11211    11470    11472 1
   11212     7393     7395 1
   11213     3567     3568 1
   11214     5403     5404 1
   11215    12826    12827 1
   11216    10564    10566 1
   11217     5027     5026 1
   11218    13120    13122 1
   11219    12400    12401 1
   11220     9055     9056 1
   11221      706      707 1
   11222     2542     2543 1
   11223     2304     2305 1
   11224     2552     2553 1
   11225      716      717 1
   11226     2183     2184 1
   11227     8170     8172 1
   11228     6617     6618 1
   11229     6720     6721 1
   11230     5310     5311 1
   11231     4773     4774 1
   11232      282      283 1
   11233     5915     5916 1
   11234     5018     5019 1
   11235     1339     1340 1
   11236      265      266 1
   11237      802      803 1
   11238     3175     3176 1
   11239     2638     2639 1
   11240     6083     6084 1
   11241     4247     4248 1
   11242     4004     4007 1
   11243     8053     8054 1
   11244    13726    13727 1
   11245     4115     4116 1
   11246     7768     7769 1
   11247    12574    12575 1
   11248    14491    14492 1
   11249     9334     9335 1
   11250     9685     9686 1
   11251    11170    11171 1
   11252    10927    10928 1
   11253    12493    12494 1
   11254    13006    13007 1
   11255     9766     9767 1
   11256     7081     7083 1
   11257     6681     6682 1
   11258    14230    14232 1
   11259     9727     9729 1
   11260     7390     7392 1
   11261     5659     5660 1
   11262     3823     3824 1
   11263      456      457 1
   11264     1962     1963 1
   11265       67       68 1
   11266    11350    11352 1
   11267     1615     1614 1
   11268     3451     3450 1
   11269     9283     9285 1
   11270     2088     2089 1
   11271    12496    12498 1
   11272    14584    14586 1
   11273     7339     7341 1
   11274      189      188 1
   11275     1418     1417 1
   11276     3254     3253 1
   11277     4490     4492 1
   11278     4875     4877 1
   11279     6711     6713 1
   11280     9754     9755 1
   11281      738      740 1
   11282      555      556 1
   11283     2574     2576 1
   11284      620      621 1
   11285    10129    10131 1
   11286    13555    13556 1
   11287     9979     9980 1
   11288    11302    11303 1
   11289    11476    11477 1
   11290     2647     2650 1
   11291     7399     7400 1
   11292    14473    14474 1
   11293     9154     9155 1
   11294    11638    11639 1
   11295    10315    10316 1
   11296      811      814 1
   11297    13837    13838 1
   11298     8842     8843 1
   11299    12001    12002 1
   11300     8680     8681 1
   11301    13918    13919 1
   11302    13999    14000 1
   11303     2461     2462 1
   11304      730      731 1
   11305     1477     1478 1
   11306     1159     1160 1
   11307     2677     2678 1
   11308     2884     2885 1
   11309     2690     2691 1
   11310     2903     2904 1
   11311     1067     1068 1
   11312     4485     4486 1
   11313     6724     6725 1
   11314     4403     4404 1
   11315     6128     6129 1
   11316     6132     6133 1
   11317     8875     8877 1
   11318     8569     8570 1
   11319    13780    13781 1
   11320     9052     9053 1
   11321     6593     6594 1
   11322    11077    11078 1
   11323     2520     2521 1
   11324      315      316 1
   11325      426      427 1
   11326     1649     1650 1
   11327     1637     1638 1
   11328     2180     2181 1
   11329     1112     1113 1
   11330     1643     1644 1
   11331     3352     3353 1
   11332     2944     2943 1
   11333     4020     4021 1
   11334     5856     5857 1
   11335     4026     4027 1
   11336     6308     6309 1
   11337     4472     4473 1
   11338     6419     6420 1
   11339     2067     2069 1
   11340     1635     1637 1
   11341     9655     9656 1
   11342     8047     8048 1
   11343    12124    12125 1
   11344    13732    13733 1
   11345    10858    10859 1
   11346    12655    12656 1
   11347     9064     9065 1
   11348     4387     4388 1
   11349     3955     3956 1
   11350    12268    12269 1
   11351    12160    12161 1
   11352    14182    14183 1
   11353     9163     9164 1
   11354    12616    12617 1
   11355    14452    14453 1
   11356     9376     9377 1
   11357     8920     8921 1
   11358    12265    12266 1
   11359     9190     9191 1
   11360     5312     5313 1
   11361     1746     1747 1
   11362     1434     1435 1
   11363     7099     7101 1
   11364      672      673 1
   11365      179      177 1
   11366     7516     7518 1
   11367     7963     7964 1
   11368     9529     9530 1
   11369     1006      985 1
   11370    11194    11196 1
   11371     2821     2822 1
   11372     8479     8481 1
   11373    10396    10398 1
   11374     3926     3924 1
   11375     3637     3638 1
   11376     5044     5045 1
   11377     6772     6773 1
   11378     5762     5760 1
   11379     8638     8640 1
   11380     5750     5751 1
   11381     2342     2343 1
   11382      506      507 1
   11383     4232     4233 1
   11384    14146    14148 1
   11385     8800     8802 1
   11386    12040    12042 1
   11387     3327     3326 1
   11388      735      734 1
   11389     2571     2570 1
   11390       57       58 1
   11391     9763     9764 1
   11392     7759     7761 1
   11393    13696    13698 1
   11394     8044     8045 1
   11395    14218    14220 1
   11396     1289     1290 1
   11397    11974    11976 1
   11398     7687     7688 1
   11399     4178     4179 1
   11400     6514     6493 1
   11401    10228    10230 1
   11402    10714    10715 1
   11403    14305    14306 1
   11404     7474     7475 1
   11405    10876    10877 1
   11406    11713    11714 1
   11407    12793    12794 1
   11408    11875    11876 1
   11409    11551    11552 1
   11410    10390    10391 1
   11411     9553     9554 1
   11412     6117     6119 1
   11413     8701     8703 1
   11414    12022    12024 1
   11415     9433     9435 1
   11416    14212    14214 1
   11417     9595     9597 1
   11418    12835    12837 1
   11419     9514     9516 1
   11420    10999    11001 1
   11421     2297     2298 1
   11422    13858    13860 1
   11423      995      996 1
   11424     3056     3057 1
   11425    12523    12524 1
   11426     5566     5567 1
   11427     6780     6781 1
   11428     5694     5695 1
   11429     5290     5291 1
   11430     6040     6041 1
   11431     4204     4205 1
   11432     4944     4945 1
   11433     3858     3859 1
   11434     5583     5584 1
   11435    10945    10947 1
   11436     4926     4927 1
   11437     6762     6763 1
   11438     2766     2767 1
   11439      930      931 1
   11440     4481     4480 1
   11441     4355     4356 1
   11442     7315     7317 1
   11443    12562    12563 1
   11444     5627     5628 1
   11445     3791     3792 1
   11446    11050    11051 1
   11447     8308     8309 1
   11448    12415    12417 1
   11449     6750     6749 1
   11450     2094     2095 1
   11451     2274     2275 1
   11452      438      439 1
   11453       50       51 1
   11454     2101     2102 1
   11455    13885    13887 1
   11456     2112     2113 1
   11457    11116    11118 1
   11458     4094     4095 1
   11459    11671    11673 1
   11460    11824    11825 1
   11461     8833     8835 1
   11462    12046    12048 1
   11463     8806     8808 1
   11464     8644     8646 1
   11465     4004     4006 1
   11466     7018     7020 1
   11467     8995     8997 1
   11468    14152    14154 1
   11469     7045     7047 1
   11470    12073    12075 1
   11471     4254     4255 1
   11472     6090     6091 1
   11473     2873     2874 1
   11474     4891     4890 1
   11475    13093    13094 1
   11476     2072     2071 1
   11477    12700    12701 1
   11478     9451     9452 1
   11479    14500    14501 1
   11480    11017    11018 1
   11481    14110    14111 1
   11482    12853    12854 1
   11483     7615     7616 1
   11484    14002    14003 1
   11485    12502    12503 1
   11486    12583    12584 1
   11487     9034     9035 1
   11488     4408     4387 1
   11489     6805     6808 1
   11490     4969     4972 1
   11491     9541     9542 1
   11492    13945    13946 1
   11493     9274     9275 1
   11494    12190    12191 1
   11495    13783    13784 1
   11496     7789     7790 1
   11497      809      810 1
   11498      154      155 1
   11499     7702     7704 1
   11500     2645     2646 1
   11501     8113     8114 1
   11502     1349     1350 1
   11503     5375     5374 1
   11504     3539     3538 1
   11505     3752     3751 1
   11506     9175     9176 1
   11507      386      387 1
   11508     2222     2223 1
   11509     2330     2331 1
   11510     7141     7142 1
   11511      494      495 1
   11512     9469     9471 1
   11513     3945     3946 1
   11514    13345    13346 1
   11515      644      645 1
   11516     8914     8915 1
   11517     9538     9539 1
   11518     2108     2110 1
   11519     1506     1507 1
   11520     3342     3343 1
   11521     2580     2581 1
   11522    10867    10869 1
   11523     1061     1062 1
   11524     2357     2358 1
   11525    10699    10701 1
   11526     4554     4555 1
   11527     5964     5965 1
   11528     4128     4129 1
   11529     6116     6117 1
   11530    10540    10541 1
   11531      153      154 1
   11532     1345     1346 1
   11533     1456     1457 1
   11534     3292     3293 1
   11535     9883     9884 1
   11536    11572    11573 1
   11537    11206    11207 1
   11538     4035     4036 1
   11539     9985     9986 1
   11540     7072     7073 1
   11541     5493     5494 1
   11542     3669     3670 1
   11543     6579     6580 1
   11544     4743     4744 1
   11545     5505     5506 1
   11546     6943     6944 1
   11547     1142     1145 1
   11548     1034     1037 1
   11549     2978     2981 1
   11550    12385    12387 1
   11551     4153     4154 1
   11552     6745     6746 1
   11553     6313     6314 1
   11554     4477     4478 1
   11555     5989     5990 1
   11556     9067     9068 1
   11557     2140     2119 1
   11558      161      162 1
   11559     3072     3073 1
   11560     2850     2851 1
   11561     1014     1015 1
   11562    11086    11087 1
   11563     2961     2962 1
   11564     1668     1669 1
   11565     1125     1126 1
   11566       61       62 1
   11567     9817     9819 1
   11568     3890     3892 1
   11569     5726     5728 1
   11570    10258    10260 1
   11571    11437    11438 1
   11572     9622     9624 1
   11573     2496     2497 1
   11574    14506    14507 1
   11575     1273     1274 1
   11576     2992     2993 1
   11577     6055     6056 1
   11578     3109     3110 1
   11579     1696     1697 1
   11580     4219     4220 1
   11581     1280     1281 1
   11582      428      429 1
   11583       18       19 1
   11584     7060     7061 1
   11585    12004    12006 1
   11586     2977     2978 1
   11587     7255     7257 1
   11588     1343     1342 1
   11589     4027     4028 1
   11590    14284    14285 1
   11591     8386     8387 1
   11592    11968    11970 1
   11593    12376    12378 1
   11594    13069    13070 1
   11595     2326     2327 1
   11596     9049     9050 1
   11597    13207    13208 1
   11598    10534    10535 1
   11599     7210     7211 1
   11600     8887     8888 1
   11601      468      469 1
   11602     6380     6381 1
   11603    11290    11291 1
   11604     2393     2394 1
   11605     2192     2193 1
   11606     7549     7551 1
   11607     5710     5711 1
   11608     3874     3875 1
   11609     5287     5288 1
   11610     9097     9099 1
   11611    14254    14256 1
   11612     4230     4231 1
   11613     3801     3802 1
   11614     8590     8592 1
   11615     5637     5638 1
   11616     4824     4825 1
   11617     7819     7821 1
   11618    12976    12978 1
   11619     8803     8805 1
   11620     4466     4467 1
   11621     5506     5507 1
   11622      805      806 1
   11623     3572     3575 1
   11624     6704     6707 1
   11625     5408     5411 1
   11626    13048    13049 1
   11627    13222    13223 1
   11628     7741     7742 1
   11629    11224    11225 1
   11630     7984     7985 1
   11631     9739     9740 1
   11632     9820     9821 1
   11633    13546    13547 1
   11634    13141    13142 1
   11635     3114     3115 1
   11636     1278     1279 1
   11637     2066     2067 1
   11638     4851     4852 1
   11639     6897     6898 1
   11640     3708     3710 1
   11641    10627    10629 1
   11642     4434     4435 1
   11643     5823     5824 1
   11644     5061     5062 1
   11645     6036     6037 1
   11646     5613     5614 1
   11647     6687     6688 1
   11648     8809     8811 1
   11649      764      765 1
   11650    12970    12972 1
   11651     7813     7815 1
   11652    11062    11064 1
   11653     9802     9803 1
   11654    11449    11450 1
   11655     1698     1699 1
   11656       80       81 1
   11657      612      613 1
   11658     1809     1810 1
   11659      723      724 1
   11660     5177     5178 1
   11661     5384     5385 1
   11662     4415     4416 1
   11663     8560     8561 1
   11664    10687    10689 1
   11665     4421     4422 1
   11666    14518    14520 1
   11667     6195     6196 1
   11668     3933     3934 1
   11669     3822     3823 1
   11670      713      714 1
   11671     5772     5773 1
   11672     3825     3826 1
   11673     5658     5659 1
   11674     5235     5236 1
   11675     7096     7098 1
   11676     2549     2550 1
   11677     7546     7548 1
   11678     1154     1155 1
   11679     1586     1587 1
   11680     3422     3423 1
   11681     3648     3649 1
   11682     1916     1917 1
   11683      656      658 1
   11684     2492     2494 1
   11685    10072    10073 1
   11686     3994     3995 1
   11687     5803     5804 1
   11688    10855    10856 1
   11689     9511     9513 1
   11690     4354     4355 1
   11691     4657     4656 1
   11692     5368     5369 1
   11693    13609    13611 1
   11694     7435     7436 1
   11695    12235    12236 1
   11696     6294     6293 1
   11697     6072     6071 1
   11698     4770     4769 1
   11699     5079     5080 1
   11700     8152     8154 1
   11701     1730     1732 1
   11702     2054     2056 1
   11703     5836     5837 1
   11704     4000     4001 1
   11705     7114     7115 1
   11706     3352     3351 1
   11707     5246     5247 1
   11708     3136     3137 1
   11709      277      278 1
   11710     1841     1842 1
   11711     2033     2034 1
   11712     1320     1319 1
   11713     5669     5670 1
   11714     4262     4263 1
   11715     3802     3803 1
   11716     4351     4352 1
   11717     9139     9141 1
   11718    10465    10466 1
   11719     9445     9447 1
   11720      751      752 1
   11721     4095     4096 1
   11722     6693     6694 1
   11723     4092     4093 1
   11724    14212    14213 1
   11725    13723    13724 1
   11726     7405     7406 1
   11727    11482    11483 1
   11728    11296    11297 1
   11729     9973     9974 1
   11730    11566    11567 1
   11731    10321    10322 1
   11732    11644    11645 1
   11733    13561    13562 1
   11734     4983     4984 1
   11735     4922     4924 1
   11736     5631     5632 1
   11737     3841     3842 1
   11738     7027     7029 1
   11739    10747    10748 1
   11740     7147     7149 1
   11741     3126     3127 1
   11742    12754    12756 1
   11743     1282     1281 1
   11744     1393     1392 1
   11745     2503     2504 1
   11746     3154     3155 1
   11747     7519     7521 1
   11748     8599     8601 1
   11749     8263     8264 1
   11750     3886     3885 1
   11751     1628     1631 1
   11752     9085     9087 1
   11753     2561     2560 1
   11754     6698     6700 1
   11755      220      217 1
   11756    13642    13644 1
   11757     8692     8694 1
   11758    11419    11421 1
   11759    13579    13581 1
   11760     8422     8424 1
   11761    14011    14013 1
   11762    13498    13500 1
   11763    13849    13851 1
   11764    12610    12612 1
   11765    10339    10341 1
   11766     8341     8343 1
   11767    12085    12087 1
   11768    14257    14259 1
   11769     9169     9171 1
   11770     9370     9372 1
   11771     4734     4736 1
   11772     3320     3321 1
   11773     3071     3072 1
   11774     2388     2389 1
   11775      552      553 1
   11776     8236     8238 1
   11777     3131     3132 1
   11778    10327    10329 1
   11779     1295     1296 1
   11780      424      425 1
   11781     6011     6012 1
   11782     6881     6882 1
   11783     9163     9165 1
   11784    12616    12618 1
   11785    14425    14427 1
   11786    10171    10173 1
   11787     2464     2465 1
   11788    13606    13608 1
   11789    10429    10430 1
   11790    14131    14133 1
   11791     8974     8976 1
   11792     7975     7977 1
   11793     8812     8814 1
   11794     6269     6270 1
   11795    12643    12645 1
   11796     9730     9732 1
   11797     8485     8487 1
   11798    11887    11889 1
   11799     1532     1533 1
   11800    12199    12200 1
   11801     9580     9581 1
   11802     6024     6025 1
   11803     4188     4189 1
   11804     4500     4501 1
   11805     5262     5263 1
   11806       40       41 1
   11807    12346    12347 1
   11808     3954     3955 1
   11809     5790     5791 1
   11810     3585     3586 1
   11811     4793     4794 1
   11812     4367     4368 1
   11813     6203     6204 1
   11814     4408     4409 1
   11815     6569     6570 1
   11816     6244     6245 1
   11817     1395     1396 1
   11818     2212     2213 1
   11819     3286     3287 1
   11820     1450     1451 1
   11821     2524     2525 1
   11822    10408    10410 1
   11823     8056     8057 1
   11824     4084     4063 1
   11825      381      382 1
   11826     5467     5468 1
   11827     5289     5290 1
   11828     9061     9063 1
   11829    12394    12396 1
   11830    10735    10737 1
   11831     7657     7659 1
   11832     7543     7544 1
   11833    11197    11199 1
   11834     4045     4046 1
   11835     5119     5120 1
   11836     5609     5610 1
   11837     6587     6588 1
   11838     2788     2767 1
   11839     1276     1255 1
   11840     2473     2472 1
   11841     9736     9737 1
   11842    11992    11994 1
   11843     8752     8754 1
   11844    10264    10266 1
   11845     7114     7116 1
   11846     6704     6706 1
   11847    10345    10347 1
   11848     8347     8349 1
   11849     3572     3574 1
   11850    11911    11913 1
   11851    13504    13506 1
   11852     7372     7373 1
   11853     4263     4264 1
   11854     2657     2658 1
   11855     5337     5338 1
   11856      821      822 1
   11857     5176     5175 1
   11858     6127     6128 1
   11859     6553     6554 1
   11860     2920     2917 1
   11861     1084     1081 1
   11862      522      524 1
   11863     6616     6617 1
   11864     4780     4781 1
   11865     3907     3908 1
   11866     5854     5855 1
   11867     4999     5000 1
   11868     6073     6074 1
   11869     6835     6836 1
   11870     2060     2062 1
   11871     4237     4238 1
   11872     4018     4019 1
   11873     3201     3203 1
   11874     1365     1367 1
   11875     3252     3253 1
   11876     1169     1168 1
   11877     3005     3004 1
   11878     6053     6054 1
   11879    14383    14385 1
   11880    14194    14196 1
   11881    10225    10227 1
   11882    13465    13467 1
   11883    13816    13818 1
   11884      278      279 1
   11885     2566     2567 1
   11886    14221    14223 1
   11887    11737    11739 1
   11888    11575    11577 1
   11889    14350    14352 1
   11890    13027    13029 1
   11891      120      121 1
   11892    10450    10452 1
   11893    11665    11667 1
   11894     3530     3531 1
   11895    10270    10271 1
   11896     8401     8402 1
   11897     7540     7541 1
   11898      596      598 1
   11899     2432     2434 1
   11900      898      899 1
   11901     1754     1755 1
   11902     5598     5599 1
   11903     4010     4011 1
   11904    11155    11157 1
@<TRIPOS>SUBSTRUCTURE
       1 RES             1 RESIDUE    0 **** ROOT      0
