@<TRIPOS>MOLECULE
RES
3392 2720 1 0 1
SMALL
NO_CHARGES
@<TRIPOS>CRYSIN
   38.3826    31.5281   114.9740    90.0000    90.0000    90.0000  1  1
@<TRIPOS>ATOM
       1 CH3          7.8963     9.7179    81.9310 CH3           1 RES     
       2 CH3          6.1118    11.2502    81.9589 CH3           1 RES     
       3 CH3          7.8284    11.4876    83.2930 CH3           1 RES     
       4 NL           7.4283    11.0576    82.1073 NL            1 RES     
       5 CH2          8.1377    11.8844    81.2404 CH2           1 RES     
       6 CH2          7.6503    11.3598    79.8770 CH2           1 RES     
       7 OA           8.3045    12.1280    78.7875 OA            1 RES     
       8 P            7.3795    13.3883    78.4468 P             1 RES     
       9 OM           5.9742    12.8091    77.9474 OM            1 RES     
      10 OM           7.2980    14.2750    79.7761 OM            1 RES     
      11 OA           8.0528    14.2434    77.2740 OA            1 RES     
      12 CH2          7.1693    15.4015    76.9852 CH2           1 RES     
      13 CH1          7.2464    15.7960    75.6878 CH1           1 RES     
      14 OE           5.8448    15.3564    75.6334 OE            1 RES     
      15 C            5.1486    14.8946    74.3876 C             1 RES     
      16 O            4.2168    14.0918    74.3671 O             1 RES     
      17 CH2          5.9474    15.4309    73.3635 CH2           1 RES     
      18 CH2          5.3014    14.8352    72.0989 CH2           1 RES     
      19 CH2          6.1632    15.1803    70.8701 CH2           1 RES     
      20 CH2          5.5172    14.5846    69.6054 CH2           1 RES     
      21 CH2          6.3790    14.9296    68.3767 CH2           1 RES     
      22 CH2          5.7330    14.3339    67.1120 CH2           1 RES     
      23 CH2          6.5948    14.6790    65.8833 CH2           1 RES     
      24 CH2          5.9488    14.0833    64.6186 CH2           1 RES     
      25 CH2          6.8106    14.4284    63.3899 CH2           1 RES     
      26 CH2          6.1647    13.8327    62.1252 CH2           1 RES     
      27 CH2          7.0265    14.1778    60.8965 CH2           1 RES     
      28 CH2          6.3805    13.5820    59.6318 CH2           1 RES     
      29 CH2          7.2423    13.9271    58.4030 CH2           1 RES     
      30 CH2          6.5963    13.3314    57.1384 CH2           1 RES     
      31 CH2          7.4581    13.6765    55.9096 CH2           1 RES     
      32 CH2          6.8121    13.0808    54.6450 CH2           1 RES     
      33 CH3          7.6347    13.4102    53.4721 CH3           1 RES     
      34 CH2          8.1275    14.7992    74.9120 CH2           1 RES     
      35 OE           7.3955    14.5443    73.6696 OE            1 RES     
      36 C            8.3608    13.5812    73.0445 C             1 RES     
      37 O            9.4158    13.2178    73.5619 O             1 RES     
      38 CH2          7.8492    13.4215    71.7455 CH2           1 RES     
      39 CH2          8.9229    12.5430    71.0769 CH2           1 RES     
      40 CH2          8.6128    12.4063    69.5747 CH2           1 RES     
      41 CH2          9.6864    11.5278    68.9060 CH2           1 RES     
      42 CH2          9.3763    11.3910    67.4038 CH2           1 RES     
      43 CH2         10.4500    10.5125    66.7351 CH2           1 RES     
      44 CH2         10.1399    10.3758    65.2329 CH2           1 RES     
      45 CH2         11.2136     9.4973    64.5642 CH2           1 RES     
      46 CH2         10.9034     9.3605    63.0620 CH2           1 RES     
      47 CH2         11.9771     8.4821    62.3933 CH2           1 RES     
      48 CH2         11.6670     8.3453    60.8911 CH2           1 RES     
      49 CH2         12.7407     7.4668    60.2224 CH2           1 RES     
      50 CH2         12.4306     7.3301    58.7202 CH2           1 RES     
      51 CH2         13.5042     6.4516    58.0515 CH2           1 RES     
      52 CH2         13.1941     6.3148    56.5493 CH2           1 RES     
      53 CH2         14.2678     5.4363    55.8806 CH2           1 RES     
      54 CH3         13.9718     5.3058    54.4467 CH3           1 RES     
      55 CH3         13.6881     9.7179    81.9310 CH3           1 RES     
      56 CH3         11.4057    10.2861    81.9589 CH3           1 RES     
      57 CH3         12.8332    11.2688    83.2930 CH3           1 RES     
      58 NL          12.6686    10.7050    82.1073 NL            1 RES     
      59 CH2         12.9314    11.7623    81.2404 CH2           1 RES     
      60 CH2         12.7313    11.0746    79.8770 CH2           1 RES     
      61 OA          12.9711    12.0548    78.7875 OA            1 RES     
      62 P           11.5788    12.7658    78.4468 P             1 RES     
      63 OM          10.5830    11.6173    77.9474 OM            1 RES     
      64 OM          11.1079    13.5216    79.7761 OM            1 RES     
      65 OA          11.7966    13.8321    77.2740 OA            1 RES     
      66 CH2         10.4872    14.4704    76.9852 CH2           1 RES     
      67 CH1         10.3791    14.8575    75.6878 CH1           1 RES     
      68 OE           9.3239    13.8355    75.6334 OE            1 RES     
      69 C            8.9091    13.1103    74.3876 C             1 RES     
      70 O            8.4368    11.9748    74.3671 O             1 RES     
      71 CH2          9.3822    13.9482    73.3635 CH2           1 RES     
      72 CH2          9.0723    13.1259    72.0989 CH2           1 RES     
      73 CH2          9.6875    13.8211    70.8701 CH2           1 RES     
      74 CH2          9.3777    12.9988    69.6054 CH2           1 RES     
      75 CH2          9.9929    13.6940    68.3767 CH2           1 RES     
      76 CH2          9.6830    12.8717    67.1120 CH2           1 RES     
      77 CH2         10.2982    13.5669    65.8833 CH2           1 RES     
      78 CH2          9.9884    12.7446    64.6186 CH2           1 RES     
      79 CH2         10.6036    13.4398    63.3899 CH2           1 RES     
      80 CH2         10.2937    12.6175    62.1252 CH2           1 RES     
      81 CH2         10.9089    13.3127    60.8965 CH2           1 RES     
      82 CH2         10.5991    12.4904    59.6318 CH2           1 RES     
      83 CH2         11.2143    13.1857    58.4030 CH2           1 RES     
      84 CH2         10.9044    12.3633    57.1384 CH2           1 RES     
      85 CH2         11.5196    13.0586    55.9096 CH2           1 RES     
      86 CH2         11.2098    12.2363    54.6450 CH2           1 RES     
      87 CH3         11.7970    12.8999    53.4721 CH3           1 RES     
      88 CH2         11.6138    14.3623    74.9120 CH2           1 RES     
      89 OE          11.0741    13.8059    73.6696 OE            1 RES     
      90 C           12.3690    13.3786    73.0445 C             1 RES     
      91 O           13.4749    13.5275    73.5619 O             1 RES     
      92 CH2         11.9836    13.0063    71.7455 CH2           1 RES     
      93 CH2         13.3374    12.7032    71.0769 CH2           1 RES     
      94 CH2         13.1216    12.4418    69.5747 CH2           1 RES     
      95 CH2         14.4754    12.1388    68.9060 CH2           1 RES     
      96 CH2         14.2597    11.8773    67.4038 CH2           1 RES     
      97 CH2         15.6134    11.5743    66.7351 CH2           1 RES     
      98 CH2         15.3977    11.3129    65.2329 CH2           1 RES     
      99 CH2         16.7514    11.0098    64.5642 CH2           1 RES     
     100 CH2         16.5357    10.7484    63.0620 CH2           1 RES     
     101 CH2         17.8895    10.4454    62.3933 CH2           1 RES     
     102 CH2         17.6738    10.1840    60.8911 CH2           1 RES     
     103 CH2         19.0275     9.8809    60.2224 CH2           1 RES     
     104 CH2         18.8118     9.6195    58.7202 CH2           1 RES     
     105 CH2         20.1655     9.3164    58.0515 CH2           1 RES     
     106 CH2         19.9498     9.0550    56.5493 CH2           1 RES     
     107 CH2         21.3036     8.7520    55.8806 CH2           1 RES     
     108 CH3         21.0977     8.5025    54.4467 CH3           1 RES     
     109 CH3         25.2718    15.5098    81.9310 CH3           1 RES     
     110 CH3         22.9576    15.0894    81.9589 CH3           1 RES     
     111 CH3         23.8548    16.5720    83.2930 CH3           1 RES     
     112 NL          23.9366    15.9904    82.1073 NL            1 RES     
     113 CH2         23.7415    17.0622    81.2404 CH2           1 RES     
     114 CH2         23.8418    16.3531    79.8770 CH2           1 RES     
     115 OA          23.6574    17.3452    78.7875 OA            1 RES     
     116 P           22.0960    17.4209    78.4468 P             1 RES     
     117 OM          21.6604    15.9646    77.9474 OM            1 RES     
     118 OM          21.3560    17.9163    79.7761 OM            1 RES     
     119 OA          21.8561    18.4825    77.2740 OA            1 RES     
     120 CH2         20.4001    18.5260    76.9852 CH2           1 RES     
     121 CH1         20.1423    18.8345    75.6878 CH1           1 RES     
     122 OE          19.6006    17.4690    75.6334 OE            1 RES     
     123 C           19.5207    16.6374    74.3876 C             1 RES     
     124 O           19.5570    15.4081    74.3671 O             1 RES     
     125 CH2         19.6074    17.5956    73.3635 CH2           1 RES     
     126 CH2         19.6631    16.7187    72.0989 CH2           1 RES     
     127 CH2         19.9380    17.6053    70.8701 CH2           1 RES     
     128 CH2         19.9937    16.7284    69.6054 CH2           1 RES     
     129 CH2         20.2686    17.6150    68.3767 CH2           1 RES     
     130 CH2         20.3243    16.7381    67.1120 CH2           1 RES     
     131 CH2         20.5992    17.6247    65.8833 CH2           1 RES     
     132 CH2         20.6549    16.7477    64.6186 CH2           1 RES     
     133 CH2         20.9298    17.6344    63.3899 CH2           1 RES     
     134 CH2         20.9855    16.7574    62.1252 CH2           1 RES     
     135 CH2         21.2604    17.6441    60.8965 CH2           1 RES     
     136 CH2         21.3161    16.7671    59.6318 CH2           1 RES     
     137 CH2         21.5910    17.6538    58.4030 CH2           1 RES     
     138 CH2         21.6467    16.7768    57.1384 CH2           1 RES     
     139 CH2         21.9217    17.6635    55.9096 CH2           1 RES     
     140 CH2         21.9773    16.7865    54.6450 CH2           1 RES     
     141 CH3         22.2398    17.6329    53.4721 CH3           1 RES     
     142 CH2         21.4715    18.8907    74.9120 CH2           1 RES     
     143 OE          21.2083    18.1616    73.6696 OE            1 RES     
     144 C           22.5643    18.3045    73.0445 C             1 RES     
     145 O           23.5113    18.8948    73.5619 O             1 RES     
     146 CH2         22.3661    17.8066    71.7455 CH2           1 RES     
     147 CH2         23.7247    18.0869    71.0769 CH2           1 RES     
     148 CH2         23.6355    17.7599    69.5747 CH2           1 RES     
     149 CH2         24.9942    18.0402    68.9060 CH2           1 RES     
     150 CH2         24.9050    17.7132    67.4038 CH2           1 RES     
     151 CH2         26.2637    17.9935    66.7351 CH2           1 RES     
     152 CH2         26.1745    17.6665    65.2329 CH2           1 RES     
     153 CH2         27.5331    17.9469    64.5642 CH2           1 RES     
     154 CH2         27.4440    17.6199    63.0620 CH2           1 RES     
     155 CH2         28.8026    17.9002    62.3933 CH2           1 RES     
     156 CH2         28.7134    17.5732    60.8911 CH2           1 RES     
     157 CH2         30.0721    17.8535    60.2224 CH2           1 RES     
     158 CH2         29.9829    17.5265    58.7202 CH2           1 RES     
     159 CH2         31.3415    17.8068    58.0515 CH2           1 RES     
     160 CH2         31.2524    17.4799    56.5493 CH2           1 RES     
     161 CH2         32.6110    17.7602    55.8806 CH2           1 RES     
     162 CH3         32.5259    17.4480    54.4467 CH3           1 RES     
     163 CH3          7.8963    15.5098    81.9310 CH3           1 RES     
     164 CH3          5.5482    15.3728    81.9589 CH3           1 RES     
     165 CH3          6.6184    16.7358    83.2930 CH3           1 RES     
     166 NL           6.6291    16.1486    82.1073 NL            1 RES     
     167 CH2          6.5653    17.2362    81.2404 CH2           1 RES     
     168 CH2          6.5790    16.5201    79.8770 CH2           1 RES     
     169 OA           6.5161    17.5273    78.7875 OA            1 RES     
     170 P            4.9753    17.7916    78.4468 P             1 RES     
     171 OM           4.3665    16.3987    77.9474 OM            1 RES     
     172 OM           4.3008    18.3729    79.7761 OM            1 RES     
     173 OA           4.8658    18.8744    77.2740 OA            1 RES     
     174 CH2          3.4258    19.0940    76.9852 CH2           1 RES     
     175 CH1          3.2073    19.4314    75.6878 CH1           1 RES     
     176 OE           2.5042    18.1416    75.6334 OE            1 RES     
     177 C            2.3241    17.3258    74.3876 C             1 RES     
     178 O            2.2112    16.1011    74.3671 O             1 RES     
     179 CH2          2.5263    18.2665    73.3635 CH2           1 RES     
     180 CH2          2.4753    17.3892    72.0989 CH2           1 RES     
     181 CH2          2.8556    18.2360    70.8701 CH2           1 RES     
     182 CH2          2.8046    17.3588    69.6054 CH2           1 RES     
     183 CH2          3.1850    18.2056    68.3767 CH2           1 RES     
     184 CH2          3.1339    17.3283    67.1120 CH2           1 RES     
     185 CH2          3.5143    18.1752    65.8833 CH2           1 RES     
     186 CH2          3.4633    17.2979    64.6186 CH2           1 RES     
     187 CH2          3.8437    18.1448    63.3899 CH2           1 RES     
     188 CH2          3.7926    17.2675    62.1252 CH2           1 RES     
     189 CH2          4.1730    18.1143    60.8965 CH2           1 RES     
     190 CH2          4.1220    17.2371    59.6318 CH2           1 RES     
     191 CH2          4.5023    18.0839    58.4030 CH2           1 RES     
     192 CH2          4.4513    17.2066    57.1384 CH2           1 RES     
     193 CH2          4.8317    18.0535    55.9096 CH2           1 RES     
     194 CH2          4.7807    17.1762    54.6450 CH2           1 RES     
     195 CH3          5.1437    17.9845    53.4721 CH3           1 RES     
     196 CH2          4.5335    19.3261    74.9120 CH2           1 RES     
     197 OE           4.1839    18.6343    73.6696 OE            1 RES     
     198 C            5.5473    18.6119    73.0445 C             1 RES     
     199 O            6.5588    19.0832    73.5619 O             1 RES     
     200 CH2          5.2902    18.1416    71.7455 CH2           1 RES     
     201 CH2          6.6728    18.2553    71.0769 CH2           1 RES     
     202 CH2          6.5446    17.9415    69.5747 CH2           1 RES     
     203 CH2          7.9272    18.0552    68.9060 CH2           1 RES     
     204 CH2          7.7991    17.7414    67.4038 CH2           1 RES     
     205 CH2          9.1817    17.8551    66.7351 CH2           1 RES     
     206 CH2          9.0536    17.5413    65.2329 CH2           1 RES     
     207 CH2         10.4362    17.6550    64.5642 CH2           1 RES     
     208 CH2         10.3080    17.3412    63.0620 CH2           1 RES     
     209 CH2         11.6906    17.4549    62.3933 CH2           1 RES     
     210 CH2         11.5625    17.1411    60.8911 CH2           1 RES     
     211 CH2         12.9451    17.2548    60.2224 CH2           1 RES     
     212 CH2         12.8170    16.9410    58.7202 CH2           1 RES     
     213 CH2         14.1996    17.0547    58.0515 CH2           1 RES     
     214 CH2         14.0714    16.7409    56.5493 CH2           1 RES     
     215 CH2         15.4540    16.8545    55.8806 CH2           1 RES     
     216 CH3         15.3317    16.5550    54.4467 CH3           1 RES     
     217 CH3         25.2718     9.7179    81.9310 CH3           1 RES     
     218 CH3         22.9268     9.5364    81.9589 CH3           1 RES     
     219 CH3         23.9709    10.9195    83.2930 CH3           1 RES     
     220 NL          23.9928    10.3326    82.1073 NL            1 RES     
     221 CH2         23.9083    11.4187    81.2404 CH2           1 RES     
     222 CH2         23.9356    10.7031    79.8770 CH2           1 RES     
     223 OA          23.8536    11.7089    78.7875 OA            1 RES     
     224 P           22.3081    11.9439    78.4468 P             1 RES     
     225 OM          21.7258    10.5398    77.9474 OM            1 RES     
     226 OM          21.6227    12.5123    79.7761 OM            1 RES     
     227 OA          22.1781    13.0244    77.2740 OA            1 RES     
     228 CH2         20.7342    13.2167    76.9852 CH2           1 RES     
     229 CH1         20.5093    13.5499    75.6878 CH1           1 RES     
     230 OE          19.8308    12.2470    75.6334 OE            1 RES     
     231 C           19.6662    11.4279    74.3876 C             1 RES     
     232 O           19.5766    10.2013    74.3671 O             1 RES     
     233 CH2         19.8505    12.3723    73.3635 CH2           1 RES     
     234 CH2         19.8161    11.4942    72.0989 CH2           1 RES     
     235 CH2         20.1804    12.3481    70.8701 CH2           1 RES     
     236 CH2         20.1460    11.4700    69.6054 CH2           1 RES     
     237 CH2         20.5102    12.3239    68.3767 CH2           1 RES     
     238 CH2         20.4759    11.4458    67.1120 CH2           1 RES     
     239 CH2         20.8401    12.2997    65.8833 CH2           1 RES     
     240 CH2         20.8057    11.4217    64.6186 CH2           1 RES     
     241 CH2         21.1699    12.2756    63.3899 CH2           1 RES     
     242 CH2         21.1356    11.3975    62.1252 CH2           1 RES     
     243 CH2         21.4998    12.2514    60.8965 CH2           1 RES     
     244 CH2         21.4654    11.3733    59.6318 CH2           1 RES     
     245 CH2         21.8297    12.2272    58.4030 CH2           1 RES     
     246 CH2         21.7953    11.3491    57.1384 CH2           1 RES     
     247 CH2         22.1595    12.2030    55.9096 CH2           1 RES     
     248 CH2         22.1252    11.3250    54.6450 CH2           1 RES     
     249 CH3         22.4728    12.1400    53.4721 CH3           1 RES     
     250 CH2         21.8372    13.4698    74.9120 CH2           1 RES     
     251 OE          21.5009    12.7715    73.6696 OE            1 RES     
     252 C           22.8644    12.7749    73.0445 C             1 RES     
     253 O           23.8668    13.2653    73.5619 O             1 RES     
     254 CH2         22.6162    12.2999    71.7455 CH2           1 RES     
     255 CH2         23.9964    12.4398    71.0769 CH2           1 RES     
     256 CH2         23.8743    12.1236    69.5747 CH2           1 RES     
     257 CH2         25.2545    12.2635    68.9060 CH2           1 RES     
     258 CH2         25.1323    11.9473    67.4038 CH2           1 RES     
     259 CH2         26.5125    12.0872    66.7351 CH2           1 RES     
     260 CH2         26.3904    11.7711    65.2329 CH2           1 RES     
     261 CH2         27.7706    11.9109    64.5642 CH2           1 RES     
     262 CH2         27.6484    11.5948    63.0620 CH2           1 RES     
     263 CH2         29.0286    11.7347    62.3933 CH2           1 RES     
     264 CH2         28.9064    11.4185    60.8911 CH2           1 RES     
     265 CH2         30.2866    11.5584    60.2224 CH2           1 RES     
     266 CH2         30.1645    11.2422    58.7202 CH2           1 RES     
     267 CH2         31.5447    11.3821    58.0515 CH2           1 RES     
     268 CH2         31.4225    11.0659    56.5493 CH2           1 RES     
     269 CH2         32.8027    11.2058    55.8806 CH2           1 RES     
     270 CH3         32.6861    10.9040    54.4467 CH3           1 RES     
     271 CH3         19.4800    15.5098    81.9310 CH3           1 RES     
     272 CH3         17.1660    15.9315    81.9589 CH3           1 RES     
     273 CH3         18.5280    17.0030    83.2930 CH3           1 RES     
     274 NL          18.3996    16.4299    82.1073 NL            1 RES     
     275 CH2         18.5946    17.5018    81.2404 CH2           1 RES     
     276 CH2         18.4387    16.8028    79.8770 CH2           1 RES     
     277 OA          18.6156    17.7962    78.7875 OA            1 RES     
     278 P           17.1809    18.4171    78.4468 P             1 RES     
     279 OM          16.2602    17.2076    77.9474 OM            1 RES     
     280 OM          16.6628    19.1414    79.7761 OM            1 RES     
     281 OA          17.3303    19.4951    77.2740 OA            1 RES     
     282 CH2         15.9829    20.0487    76.9852 CH2           1 RES     
     283 CH1         15.8504    20.4282    75.6878 CH1           1 RES     
     284 OE          14.8624    19.3411    75.6334 OE            1 RES     
     285 C           14.4946    18.5909    74.3876 C             1 RES     
     286 O           14.0956    17.4276    74.3671 O             1 RES     
     287 CH2         14.9134    19.4572    73.3635 CH2           1 RES     
     288 CH2         14.6565    18.6169    72.0989 CH2           1 RES     
     289 CH2         15.2262    19.3498    70.8701 CH2           1 RES     
     290 CH2         14.9693    18.5095    69.6054 CH2           1 RES     
     291 CH2         15.5390    19.2425    68.3767 CH2           1 RES     
     292 CH2         15.2822    18.4021    67.1120 CH2           1 RES     
     293 CH2         15.8519    19.1351    65.8833 CH2           1 RES     
     294 CH2         15.5950    18.2947    64.6186 CH2           1 RES     
     295 CH2         16.1647    19.0277    63.3899 CH2           1 RES     
     296 CH2         15.9078    18.1873    62.1252 CH2           1 RES     
     297 CH2         16.4775    18.9203    60.8965 CH2           1 RES     
     298 CH2         16.2207    18.0799    59.6318 CH2           1 RES     
     299 CH2         16.7903    18.8129    58.4030 CH2           1 RES     
     300 CH2         16.5335    17.9726    57.1384 CH2           1 RES     
     301 CH2         17.1032    18.7055    55.9096 CH2           1 RES     
     302 CH2         16.8463    17.8652    54.6450 CH2           1 RES     
     303 CH3         17.3901    18.5648    53.4721 CH3           1 RES     
     304 CH2         17.1141    20.0126    74.9120 CH2           1 RES     
     305 OE          16.6110    19.4230    73.6696 OE            1 RES     
     306 C           17.9304    19.0790    73.0445 C             1 RES     
     307 O           19.0246    19.2980    73.5619 O             1 RES     
     308 CH2         17.5695    18.6829    71.7455 CH2           1 RES     
     309 CH2         18.9398    18.4667    71.0769 CH2           1 RES     
     310 CH2         18.7412    18.1921    69.5747 CH2           1 RES     
     311 CH2         20.1115    17.9758    68.9060 CH2           1 RES     
     312 CH2         19.9128    17.7012    67.4038 CH2           1 RES     
     313 CH2         21.2831    17.4850    66.7351 CH2           1 RES     
     314 CH2         21.0845    17.2104    65.2329 CH2           1 RES     
     315 CH2         22.4548    16.9941    64.5642 CH2           1 RES     
     316 CH2         22.2562    16.7195    63.0620 CH2           1 RES     
     317 CH2         23.6265    16.5033    62.3933 CH2           1 RES     
     318 CH2         23.4278    16.2287    60.8911 CH2           1 RES     
     319 CH2         24.7981    16.0124    60.2224 CH2           1 RES     
     320 CH2         24.5995    15.7378    58.7202 CH2           1 RES     
     321 CH2         25.9698    15.5216    58.0515 CH2           1 RES     
     322 CH2         25.7712    15.2470    56.5493 CH2           1 RES     
     323 CH2         27.1415    15.0307    55.8806 CH2           1 RES     
     324 CH3         26.9519    14.7686    54.4467 CH3           1 RES     
     325 CH3         19.4800     3.9261    81.9310 CH3           1 RES     
     326 CH3         17.3532     4.9306    81.9589 CH3           1 RES     
     327 CH3         18.9455     5.6144    83.2930 CH3           1 RES     
     328 NL          18.6736     5.0938    82.1073 NL            1 RES     
     329 CH2         19.1385     6.0791    81.2404 CH2           1 RES     
     330 CH2         18.8076     5.4440    79.8770 CH2           1 RES     
     331 OA          19.2348     6.3582    78.7875 OA            1 RES     
     332 P           18.0089     7.3282    78.4468 P             1 RES     
     333 OM          16.8073     6.3972    77.9474 OM            1 RES     
     334 OM          17.6952     8.1616    79.7761 OM            1 RES     
     335 OA          18.4314     8.3312    77.2740 OA            1 RES     
     336 CH2         17.2725     9.2137    76.9852 CH2           1 RES     
     337 CH1         17.2424     9.6145    75.6878 CH1           1 RES     
     338 OE          16.0073     8.8192    75.6334 OE            1 RES     
     339 C           15.4585     8.1893    74.3876 C             1 RES     
     340 O           14.7728     7.1683    74.3671 O             1 RES     
     341 CH2         16.0866     8.9182    73.3635 CH2           1 RES     
     342 CH2         15.6216     8.1725    72.0989 CH2           1 RES     
     343 CH2         16.3611     8.7337    70.8701 CH2           1 RES     
     344 CH2         15.8961     7.9881    69.6054 CH2           1 RES     
     345 CH2         16.6356     8.5492    68.3767 CH2           1 RES     
     346 CH2         16.1706     7.8036    67.1120 CH2           1 RES     
     347 CH2         16.9101     8.3648    65.8833 CH2           1 RES     
     348 CH2         16.4451     7.6191    64.6186 CH2           1 RES     
     349 CH2         17.1847     8.1803    63.3899 CH2           1 RES     
     350 CH2         16.7197     7.4347    62.1252 CH2           1 RES     
     351 CH2         17.4592     7.9958    60.8965 CH2           1 RES     
     352 CH2         16.9942     7.2502    59.6318 CH2           1 RES     
     353 CH2         17.7337     7.8114    58.4030 CH2           1 RES     
     354 CH2         17.2687     7.0657    57.1384 CH2           1 RES     
     355 CH2         18.0082     7.6269    55.9096 CH2           1 RES     
     356 CH2         17.5433     6.8813    54.6450 CH2           1 RES     
     357 CH3         18.2492     7.4169    53.4721 CH3           1 RES     
     358 CH2         18.3561     8.8869    74.9120 CH2           1 RES     
     359 OE          17.7178     8.4470    73.6696 OE            1 RES     
     360 C           18.9039     7.7743    73.0445 C             1 RES     
     361 O           20.0175     7.7035    73.5619 O             1 RES     
     362 CH2         18.4529     7.4847    71.7455 CH2           1 RES     
     363 CH2         19.7211     6.9222    71.0769 CH2           1 RES     
     364 CH2         19.4583     6.7082    69.5747 CH2           1 RES     
     365 CH2         20.7264     6.1457    68.9060 CH2           1 RES     
     366 CH2         20.4636     5.9316    67.4038 CH2           1 RES     
     367 CH2         21.7317     5.3691    66.7351 CH2           1 RES     
     368 CH2         21.4690     5.1551    65.2329 CH2           1 RES     
     369 CH2         22.7371     4.5926    64.5642 CH2           1 RES     
     370 CH2         22.4743     4.3785    63.0620 CH2           1 RES     
     371 CH2         23.7424     3.8160    62.3933 CH2           1 RES     
     372 CH2         23.4796     3.6020    60.8911 CH2           1 RES     
     373 CH2         24.7478     3.0395    60.2224 CH2           1 RES     
     374 CH2         24.4850     2.8254    58.7202 CH2           1 RES     
     375 CH2         25.7531     2.2629    58.0515 CH2           1 RES     
     376 CH2         25.4903     2.0489    56.5493 CH2           1 RES     
     377 CH2         26.7584     1.4864    55.8806 CH2           1 RES     
     378 CH3         26.5076     1.2821    54.4467 CH3           1 RES     
     379 CH3          7.8963     3.9261    81.9310 CH3           1 RES     
     380 CH3          5.6584     4.6501    81.9589 CH3           1 RES     
     381 CH3          7.1501     5.5321    83.2930 CH3           1 RES     
     382 NL           6.9471     4.9810    82.1073 NL            1 RES     
     383 CH2          7.2820     6.0177    81.2404 CH2           1 RES     
     384 CH2          7.0351     5.3454    79.8770 CH2           1 RES     
     385 OA           7.3418     6.3068    78.7875 OA            1 RES     
     386 P            6.0018     7.1119    78.4468 P             1 RES     
     387 OM           4.9293     6.0347    77.9474 OM            1 RES     
     388 OM           5.5840     7.8983    79.7761 OM            1 RES     
     389 OA           6.2924     8.1607    77.2740 OA            1 RES     
     390 CH2          5.0301     8.8876    76.9852 CH2           1 RES     
     391 CH1          4.9489     9.2813    75.6878 CH1           1 RES     
     392 OE           3.8259     8.3344    75.6334 OE            1 RES     
     393 C            3.3621     7.6394    74.3876 C             1 RES     
     394 O            2.8128     6.5391    74.3671 O             1 RES     
     395 CH2          3.8917     8.4427    73.3635 CH2           1 RES     
     396 CH2          3.5260     7.6437    72.0989 CH2           1 RES     
     397 CH2          4.1876     8.2949    70.8701 CH2           1 RES     
     398 CH2          3.8219     7.4959    69.6054 CH2           1 RES     
     399 CH2          4.4835     8.1471    68.3767 CH2           1 RES     
     400 CH2          4.1178     7.3481    67.1120 CH2           1 RES     
     401 CH2          4.7794     7.9993    65.8833 CH2           1 RES     
     402 CH2          4.4137     7.2003    64.6186 CH2           1 RES     
     403 CH2          5.0753     7.8515    63.3899 CH2           1 RES     
     404 CH2          4.7096     7.0525    62.1252 CH2           1 RES     
     405 CH2          5.3712     7.7037    60.8965 CH2           1 RES     
     406 CH2          5.0054     6.9047    59.6318 CH2           1 RES     
     407 CH2          5.6670     7.5559    58.4030 CH2           1 RES     
     408 CH2          5.3013     6.7569    57.1384 CH2           1 RES     
     409 CH2          5.9629     7.4081    55.9096 CH2           1 RES     
     410 CH2          5.5972     6.6091    54.6450 CH2           1 RES     
     411 CH3          6.2287     7.2307    53.4721 CH3           1 RES     
     412 CH2          6.1466     8.7022    74.9120 CH2           1 RES     
     413 OE           5.5699     8.1843    73.6696 OE            1 RES     
     414 C            6.8323     7.6689    73.0445 C             1 RES     
     415 O            7.9459     7.7413    73.5619 O             1 RES     
     416 CH2          6.4222     7.3240    71.7455 CH2           1 RES     
     417 CH2          7.7518     6.9284    71.0769 CH2           1 RES     
     418 CH2          7.5186     6.6825    69.5747 CH2           1 RES     
     419 CH2          8.8483     6.2870    68.9060 CH2           1 RES     
     420 CH2          8.6151     6.0410    67.4038 CH2           1 RES     
     421 CH2          9.9448     5.6455    66.7351 CH2           1 RES     
     422 CH2          9.7116     5.3996    65.2329 CH2           1 RES     
     423 CH2         11.0413     5.0040    64.5642 CH2           1 RES     
     424 CH2         10.8081     4.7581    63.0620 CH2           1 RES     
     425 CH2         12.1377     4.3626    62.3933 CH2           1 RES     
     426 CH2         11.9045     4.1166    60.8911 CH2           1 RES     
     427 CH2         13.2342     3.7211    60.2224 CH2           1 RES     
     428 CH2         13.0010     3.4752    58.7202 CH2           1 RES     
     429 CH2         14.3307     3.0796    58.0515 CH2           1 RES     
     430 CH2         14.0975     2.8337    56.5493 CH2           1 RES     
     431 CH2         15.4272     2.4382    55.8806 CH2           1 RES     
     432 CH3         15.2046     2.2034    54.4467 CH3           1 RES     
     433 CH3          8.3338    11.7765    56.0935 CH3           1 RES     
     434 CH1          8.5243    10.8703    57.2351 CH1           1 RES     
     435 CH3          7.2952    10.8319    58.0406 CH3           1 RES     
     436 CH2          9.6913    11.3764    58.1032 CH2           1 RES     
     437 CH2          9.2907    11.3162    59.5889 CH2           1 RES     
     438 CH2         10.4577    11.8223    60.4569 CH2           1 RES     
     439 CH2         10.0571    11.7621    61.9427 CH2           1 RES     
     440 CH2         11.2241    12.2682    62.8107 CH2           1 RES     
     441 CH2         10.8235    12.2079    64.2965 CH2           1 RES     
     442 CH2         11.9906    12.7141    65.1645 CH2           1 RES     
     443 CH2         11.5900    12.6538    66.6503 CH2           1 RES     
     444 CH2         12.7570    13.1599    67.5183 CH2           1 RES     
     445 CH2         12.3564    13.0997    69.0041 CH2           1 RES     
     446 CH2         13.5234    13.6058    69.8721 CH2           1 RES     
     447 CH2         13.1228    13.5456    71.3578 CH2           1 RES     
     448 CH2         14.2898    14.0517    72.2259 CH2           1 RES     
     449 CH2         13.8892    13.9914    73.7116 CH2           1 RES     
     450 CH2         15.0563    14.4976    74.5796 CH2           1 RES     
     451 OE          14.6739    14.4401    75.9979 OE            1 RES     
     452 C           14.0081    15.5579    76.7443 C             1 RES     
     453 O           13.6881    15.5098    77.9310 O             1 RES     
     454 CH2         13.9679    16.4480    75.6259 CH2           1 RES     
     455 CH2         14.5966    15.7611    74.3993 CH2           1 RES     
     456 CH2         14.5533    16.7198    73.1948 CH2           1 RES     
     457 CH2         15.1821    16.0329    71.9683 CH2           1 RES     
     458 CH2         15.1388    16.9915    70.7638 CH2           1 RES     
     459 CH2         15.7675    16.3046    69.5372 CH2           1 RES     
     460 CH2         15.7242    17.2632    68.3328 CH2           1 RES     
     461 CH2         16.3530    16.5763    67.1062 CH2           1 RES     
     462 CH2         16.3097    17.5349    65.9017 CH2           1 RES     
     463 CH2         16.9384    16.8480    64.6752 CH2           1 RES     
     464 CH2         16.8951    17.8066    63.4707 CH2           1 RES     
     465 CH2         17.5239    17.1197    62.2441 CH2           1 RES     
     466 CH2         17.4806    18.0783    61.0397 CH2           1 RES     
     467 CH2         18.1093    17.3914    59.8131 CH2           1 RES     
     468 CH1         18.0660    18.3500    58.6086 CH1           1 RES     
     469 CH3         16.7399    18.9795    58.5308 CH3           1 RES     
     470 CH3         18.3240    17.5965    57.3731 CH3           1 RES     
     471 CH3          7.1616     4.0261    56.0935 CH3           1 RES     
     472 CH1          6.7865     3.1794    57.2351 CH1           1 RES     
     473 CH3          5.7667     3.8666    58.0406 CH3           1 RES     
     474 CH2          8.0293     2.9081    58.1032 CH2           1 RES     
     475 CH2          7.6690     3.0933    59.5889 CH2           1 RES     
     476 CH2          8.9118     2.8219    60.4569 CH2           1 RES     
     477 CH2          8.5515     3.0072    61.9427 CH2           1 RES     
     478 CH2          9.7942     2.7358    62.8107 CH2           1 RES     
     479 CH2          9.4340     2.9211    64.2965 CH2           1 RES     
     480 CH2         10.6767     2.6497    65.1645 CH2           1 RES     
     481 CH2         10.3165     2.8349    66.6503 CH2           1 RES     
     482 CH2         11.5592     2.5635    67.5183 CH2           1 RES     
     483 CH2         11.1990     2.7488    69.0041 CH2           1 RES     
     484 CH2         12.4417     2.4774    69.8721 CH2           1 RES     
     485 CH2         12.0814     2.6627    71.3578 CH2           1 RES     
     486 CH2         13.3242     2.3913    72.2259 CH2           1 RES     
     487 CH2         12.9639     2.5765    73.7116 CH2           1 RES     
     488 CH2         14.2067     2.3052    74.5796 CH2           1 RES     
     489 OE          13.8628     2.4820    75.9979 OE            1 RES     
     490 C           13.9759     3.7781    76.7443 C             1 RES     
     491 O           13.6881     3.9261    77.9310 O             1 RES     
     492 CH2         14.4635     4.5239    75.6259 CH2           1 RES     
     493 CH2         14.5722     3.5991    74.3993 CH2           1 RES     
     494 CH2         15.0974     4.4022    73.1948 CH2           1 RES     
     495 CH2         15.2061     3.4774    71.9683 CH2           1 RES     
     496 CH2         15.7312     4.2806    70.7638 CH2           1 RES     
     497 CH2         15.8399     3.3557    69.5372 CH2           1 RES     
     498 CH2         16.3651     4.1589    68.3328 CH2           1 RES     
     499 CH2         16.4738     3.2340    67.1062 CH2           1 RES     
     500 CH2         16.9989     4.0372    65.9017 CH2           1 RES     
     501 CH2         17.1076     3.1124    64.6752 CH2           1 RES     
     502 CH2         17.6328     3.9155    63.4707 CH2           1 RES     
     503 CH2         17.7415     2.9907    62.2441 CH2           1 RES     
     504 CH2         18.2666     3.7938    61.0397 CH2           1 RES     
     505 CH2         18.3754     2.8690    59.8131 CH2           1 RES     
     506 CH1         18.9005     3.6722    58.6086 CH1           1 RES     
     507 CH3         18.1923     4.9580    58.5308 CH3           1 RES     
     508 CH3         18.6694     2.9099    57.3731 CH3           1 RES     
     509 CH3         18.7876     4.6749    56.0935 CH3           1 RES     
     510 CH1         18.3301     3.8697    57.2351 CH1           1 RES     
     511 CH3         17.3838     4.6549    58.0406 CH3           1 RES     
     512 CH2         19.5398     3.4761    58.1032 CH2           1 RES     
     513 CH2         19.1997     3.6962    59.5889 CH2           1 RES     
     514 CH2         20.4093     3.3026    60.4569 CH2           1 RES     
     515 CH2         20.0692     3.5227    61.9427 CH2           1 RES     
     516 CH2         21.2789     3.1291    62.8107 CH2           1 RES     
     517 CH2         20.9388     3.3492    64.2965 CH2           1 RES     
     518 CH2         22.1484     2.9556    65.1645 CH2           1 RES     
     519 CH2         21.8083     3.1758    66.6503 CH2           1 RES     
     520 CH2         23.0179     2.7821    67.5183 CH2           1 RES     
     521 CH2         22.6779     3.0023    69.0041 CH2           1 RES     
     522 CH2         23.8875     2.6086    69.8721 CH2           1 RES     
     523 CH2         23.5474     2.8288    71.3578 CH2           1 RES     
     524 CH2         24.7570     2.4351    72.2259 CH2           1 RES     
     525 CH2         24.4170     2.6553    73.7116 CH2           1 RES     
     526 CH2         25.6266     2.2616    74.5796 CH2           1 RES     
     527 OE          25.3020     2.4718    75.9979 OE            1 RES     
     528 C           25.5435     3.7502    76.7443 C             1 RES     
     529 O           25.2718     3.9261    77.9310 O             1 RES     
     530 CH2         26.1028     4.4438    75.6259 CH2           1 RES     
     531 CH2         26.1190     3.5127    74.3993 CH2           1 RES     
     532 CH2         26.7214     4.2597    73.1948 CH2           1 RES     
     533 CH2         26.7376     3.3286    71.9683 CH2           1 RES     
     534 CH2         27.3400     4.0756    70.7638 CH2           1 RES     
     535 CH2         27.3562     3.1445    69.5372 CH2           1 RES     
     536 CH2         27.9586     3.8914    68.3328 CH2           1 RES     
     537 CH2         27.9748     2.9603    67.1062 CH2           1 RES     
     538 CH2         28.5772     3.7073    65.9017 CH2           1 RES     
     539 CH2         28.5934     2.7762    64.6752 CH2           1 RES     
     540 CH2         29.1959     3.5232    63.4707 CH2           1 RES     
     541 CH2         29.2120     2.5921    62.2441 CH2           1 RES     
     542 CH2         29.8145     3.3390    61.0397 CH2           1 RES     
     543 CH2         29.8306     2.4080    59.8131 CH2           1 RES     
     544 CH1         30.4331     3.1549    58.6086 CH1           1 RES     
     545 CH3         29.8563     4.5048    58.5308 CH3           1 RES     
     546 CH3         30.1273     2.4194    57.3731 CH3           1 RES     
     547 CH3          8.7036    17.0873    56.0935 CH3           1 RES     
     548 CH1          8.9774    16.2027    57.2351 CH1           1 RES     
     549 CH3          7.7572    16.0503    58.0406 CH3           1 RES     
     550 CH2         10.0924    16.8150    58.1032 CH2           1 RES     
     551 CH2          9.6991    16.7178    59.5889 CH2           1 RES     
     552 CH2         10.8141    17.3301    60.4569 CH2           1 RES     
     553 CH2         10.4208    17.2329    61.9427 CH2           1 RES     
     554 CH2         11.5358    17.8452    62.8107 CH2           1 RES     
     555 CH2         11.1425    17.7480    64.2965 CH2           1 RES     
     556 CH2         12.2575    18.3604    65.1645 CH2           1 RES     
     557 CH2         11.8642    18.2632    66.6503 CH2           1 RES     
     558 CH2         12.9792    18.8755    67.5183 CH2           1 RES     
     559 CH2         12.5859    18.7783    69.0041 CH2           1 RES     
     560 CH2         13.7009    19.3906    69.8721 CH2           1 RES     
     561 CH2         13.3077    19.2934    71.3578 CH2           1 RES     
     562 CH2         14.4226    19.9057    72.2259 CH2           1 RES     
     563 CH2         14.0294    19.8085    73.7116 CH2           1 RES     
     564 CH2         15.1443    20.4208    74.5796 CH2           1 RES     
     565 OE          14.7689    20.3281    75.9979 OE            1 RES     
     566 C           14.0023    21.3793    76.7443 C             1 RES     
     567 O           13.6881    21.3016    77.9310 O             1 RES     
     568 CH2         13.8796    22.2618    75.6259 CH2           1 RES     
     569 CH2         14.5694    21.6363    74.3993 CH2           1 RES     
     570 CH2         14.4372    22.5867    73.1948 CH2           1 RES     
     571 CH2         15.1271    21.9612    71.9683 CH2           1 RES     
     572 CH2         14.9949    22.9116    70.7638 CH2           1 RES     
     573 CH2         15.6847    22.2861    69.5372 CH2           1 RES     
     574 CH2         15.5526    23.2365    68.3328 CH2           1 RES     
     575 CH2         16.2424    22.6110    67.1062 CH2           1 RES     
     576 CH2         16.1103    23.5614    65.9017 CH2           1 RES     
     577 CH2         16.8001    22.9359    64.6752 CH2           1 RES     
     578 CH2         16.6680    23.8864    63.4707 CH2           1 RES     
     579 CH2         17.3578    23.2608    62.2441 CH2           1 RES     
     580 CH2         17.2257    24.2113    61.0397 CH2           1 RES     
     581 CH2         17.9155    23.5857    59.8131 CH2           1 RES     
     582 CH1         17.7833    24.5362    58.6086 CH1           1 RES     
     583 CH3         16.4045    25.0398    58.5308 CH3           1 RES     
     584 CH3         18.1102    23.8098    57.3731 CH3           1 RES     
     585 CH3         12.9533     9.6240    56.0935 CH3           1 RES     
     586 CH1         12.6036     8.7666    57.2351 CH1           1 RES     
     587 CH3         11.5639     9.4231    58.0406 CH3           1 RES     
     588 CH2         13.8539     8.5323    58.1032 CH2           1 RES     
     589 CH2         13.4882     8.7067    59.5889 CH2           1 RES     
     590 CH2         14.7385     8.4724    60.4569 CH2           1 RES     
     591 CH2         14.3729     8.6468    61.9427 CH2           1 RES     
     592 CH2         15.6232     8.4125    62.8107 CH2           1 RES     
     593 CH2         15.2576     8.5870    64.2965 CH2           1 RES     
     594 CH2         16.5078     8.3526    65.1645 CH2           1 RES     
     595 CH2         16.1422     8.5271    66.6503 CH2           1 RES     
     596 CH2         17.3925     8.2927    67.5183 CH2           1 RES     
     597 CH2         17.0269     8.4672    69.0041 CH2           1 RES     
     598 CH2         18.2772     8.2329    69.8721 CH2           1 RES     
     599 CH2         17.9115     8.4073    71.3578 CH2           1 RES     
     600 CH2         19.1618     8.1730    72.2259 CH2           1 RES     
     601 CH2         18.7962     8.3475    73.7116 CH2           1 RES     
     602 CH2         20.0465     8.1131    74.5796 CH2           1 RES     
     603 OE          19.6975     8.2796    75.9979 OE            1 RES     
     604 C           19.7720     9.5786    76.7443 C             1 RES     
     605 O           19.4800     9.7179    77.9310 O             1 RES     
     606 CH2         20.2373    10.3385    75.6259 CH2           1 RES     
     607 CH2         20.3734     9.4173    74.3993 CH2           1 RES     
     608 CH2         20.8744    10.2357    73.1948 CH2           1 RES     
     609 CH2         21.0106     9.3145    71.9683 CH2           1 RES     
     610 CH2         21.5116    10.1330    70.7638 CH2           1 RES     
     611 CH2         21.6478     9.2117    69.5372 CH2           1 RES     
     612 CH2         22.1488    10.0302    68.3328 CH2           1 RES     
     613 CH2         22.2850     9.1090    67.1062 CH2           1 RES     
     614 CH2         22.7860     9.9274    65.9017 CH2           1 RES     
     615 CH2         22.9222     9.0062    64.6752 CH2           1 RES     
     616 CH2         23.4232     9.8246    63.4707 CH2           1 RES     
     617 CH2         23.5593     8.9034    62.2441 CH2           1 RES     
     618 CH2         24.0604     9.7218    61.0397 CH2           1 RES     
     619 CH2         24.1965     8.8006    59.8131 CH2           1 RES     
     620 CH1         24.6976     9.6190    58.6086 CH1           1 RES     
     621 CH3         23.9515    10.8832    58.5308 CH3           1 RES     
     622 CH3         24.4892     8.8502    57.3731 CH3           1 RES     
     623 CH3         18.7889    22.0615    56.0935 CH3           1 RES     
     624 CH1         18.3301    21.2571    57.2351 CH1           1 RES     
     625 CH3         17.3851    22.0439    58.0406 CH3           1 RES     
     626 CH2         19.5390    20.8614    58.1032 CH2           1 RES     
     627 CH2         19.1993    21.0821    59.5889 CH2           1 RES     
     628 CH2         20.4083    20.6864    60.4569 CH2           1 RES     
     629 CH2         20.0686    20.9071    61.9427 CH2           1 RES     
     630 CH2         21.2775    20.5114    62.8107 CH2           1 RES     
     631 CH2         20.9378    20.7322    64.2965 CH2           1 RES     
     632 CH2         22.1468    20.3365    65.1645 CH2           1 RES     
     633 CH2         21.8071    20.5572    66.6503 CH2           1 RES     
     634 CH2         23.0160    20.1615    67.5183 CH2           1 RES     
     635 CH2         22.6763    20.3822    69.0041 CH2           1 RES     
     636 CH2         23.8852    19.9865    69.8721 CH2           1 RES     
     637 CH2         23.5456    20.2072    71.3578 CH2           1 RES     
     638 CH2         24.7545    19.8115    72.2259 CH2           1 RES     
     639 CH2         24.4148    20.0323    73.7116 CH2           1 RES     
     640 CH2         25.6237    19.6365    74.5796 CH2           1 RES     
     641 OE          25.2995    19.8473    75.9979 OE            1 RES     
     642 C           25.5432    21.1253    76.7443 C             1 RES     
     643 O           25.2718    21.3016    77.9310 O             1 RES     
     644 CH2         26.1037    21.8179    75.6259 CH2           1 RES     
     645 CH2         26.1183    20.8868    74.3993 CH2           1 RES     
     646 CH2         26.7220    21.6328    73.1948 CH2           1 RES     
     647 CH2         26.7366    20.7017    71.9683 CH2           1 RES     
     648 CH2         27.3403    21.4476    70.7638 CH2           1 RES     
     649 CH2         27.3549    20.5165    69.5372 CH2           1 RES     
     650 CH2         27.9586    21.2624    68.3328 CH2           1 RES     
     651 CH2         27.9732    20.3313    67.1062 CH2           1 RES     
     652 CH2         28.5769    21.0772    65.9017 CH2           1 RES     
     653 CH2         28.5915    20.1461    64.6752 CH2           1 RES     
     654 CH2         29.1952    20.8920    63.4707 CH2           1 RES     
     655 CH2         29.2098    19.9609    62.2441 CH2           1 RES     
     656 CH2         29.8134    20.7068    61.0397 CH2           1 RES     
     657 CH2         29.8280    19.7757    59.8131 CH2           1 RES     
     658 CH1         30.4317    20.5216    58.6086 CH1           1 RES     
     659 CH3         29.8573    21.8725    58.5308 CH3           1 RES     
     660 CH3         30.1247    19.7867    57.3731 CH3           1 RES     
     661 CH3         13.1735    22.9851    56.0935 CH3           1 RES     
     662 CH1         12.6038    22.2550    57.2351 CH1           1 RES     
     663 CH3         11.7817    23.1694    58.0406 CH3           1 RES     
     664 CH2         13.7434    21.6897    58.1032 CH2           1 RES     
     665 CH2         13.4389    21.9569    59.5889 CH2           1 RES     
     666 CH2         14.5785    21.3916    60.4569 CH2           1 RES     
     667 CH2         14.2740    21.6589    61.9427 CH2           1 RES     
     668 CH2         15.4136    21.0936    62.8107 CH2           1 RES     
     669 CH2         15.1091    21.3608    64.2965 CH2           1 RES     
     670 CH2         16.2487    20.7955    65.1645 CH2           1 RES     
     671 CH2         15.9442    21.0628    66.6503 CH2           1 RES     
     672 CH2         17.0837    20.4974    67.5183 CH2           1 RES     
     673 CH2         16.7793    20.7647    69.0041 CH2           1 RES     
     674 CH2         17.9188    20.1994    69.8721 CH2           1 RES     
     675 CH2         17.6144    20.4666    71.3578 CH2           1 RES     
     676 CH2         18.7539    19.9013    72.2259 CH2           1 RES     
     677 CH2         18.4495    20.1686    73.7116 CH2           1 RES     
     678 CH2         19.5890    19.6033    74.5796 CH2           1 RES     
     679 OE          19.2984    19.8584    75.9979 OE            1 RES     
     680 C           19.7232    21.0882    76.7443 C             1 RES     
     681 O           19.4800    21.3016    77.9310 O             1 RES     
     682 CH2         20.3774    21.6931    75.6259 CH2           1 RES     
     683 CH2         20.2581    20.7695    74.3993 CH2           1 RES     
     684 CH2         20.9627    21.4210    73.1948 CH2           1 RES     
     685 CH2         20.8434    20.4974    71.9683 CH2           1 RES     
     686 CH2         21.5480    21.1489    70.7638 CH2           1 RES     
     687 CH2         21.4286    20.2253    69.5372 CH2           1 RES     
     688 CH2         22.1332    20.8768    68.3328 CH2           1 RES     
     689 CH2         22.0139    19.9532    67.1062 CH2           1 RES     
     690 CH2         22.7185    20.6046    65.9017 CH2           1 RES     
     691 CH2         22.5991    19.6811    64.6752 CH2           1 RES     
     692 CH2         23.3037    20.3325    63.4707 CH2           1 RES     
     693 CH2         23.1844    19.4090    62.2441 CH2           1 RES     
     694 CH2         23.8890    20.0604    61.0397 CH2           1 RES     
     695 CH2         23.7697    19.1369    59.8131 CH2           1 RES     
     696 CH1         24.4743    19.7883    58.6086 CH1           1 RES     
     697 CH3         24.0999    21.2077    58.5308 CH3           1 RES     
     698 CH3         24.0648    19.1051    57.3731 CH3           1 RES     
     699 CH3          1.4034    21.9716    56.0935 CH3           1 RES     
     700 CH1          0.9558    21.1610    57.2351 CH1           1 RES     
     701 CH3          0.0000    21.9346    58.0406 CH3           1 RES     
     702 CH2          2.1701    20.7820    58.1032 CH2           1 RES     
     703 CH2          1.8274    20.9981    59.5889 CH2           1 RES     
     704 CH2          3.0417    20.6191    60.4569 CH2           1 RES     
     705 CH2          2.6990    20.8351    61.9427 CH2           1 RES     
     706 CH2          3.9133    20.4562    62.8107 CH2           1 RES     
     707 CH2          3.5706    20.6722    64.2965 CH2           1 RES     
     708 CH2          4.7849    20.2933    65.1645 CH2           1 RES     
     709 CH2          4.4422    20.5093    66.6503 CH2           1 RES     
     710 CH2          5.6565    20.1303    67.5183 CH2           1 RES     
     711 CH2          5.3137    20.3464    69.0041 CH2           1 RES     
     712 CH2          6.5280    19.9674    69.8721 CH2           1 RES     
     713 CH2          6.1853    20.1834    71.3578 CH2           1 RES     
     714 CH2          7.3996    19.8045    72.2259 CH2           1 RES     
     715 CH2          7.0569    20.0205    73.7116 CH2           1 RES     
     716 CH2          8.2712    19.6416    74.5796 CH2           1 RES     
     717 OE           7.9441    19.8478    75.9979 OE            1 RES     
     718 C            8.1700    21.1291    76.7443 C             1 RES     
     719 O            7.8963    21.3016    77.9310 O             1 RES     
     720 CH2          8.7209    21.8294    75.6259 CH2           1 RES     
     721 CH2          8.7484    20.8986    74.3993 CH2           1 RES     
     722 CH2          9.3417    21.6528    73.1948 CH2           1 RES     
     723 CH2          9.3692    20.7220    71.9683 CH2           1 RES     
     724 CH2          9.9625    21.4762    70.7638 CH2           1 RES     
     725 CH2          9.9900    20.5454    69.5372 CH2           1 RES     
     726 CH2         10.5833    21.2996    68.3328 CH2           1 RES     
     727 CH2         10.6108    20.3688    67.1062 CH2           1 RES     
     728 CH2         11.2041    21.1230    65.9017 CH2           1 RES     
     729 CH2         11.2316    20.1922    64.6752 CH2           1 RES     
     730 CH2         11.8249    20.9464    63.4707 CH2           1 RES     
     731 CH2         11.8524    20.0156    62.2441 CH2           1 RES     
     732 CH2         12.4457    20.7698    61.0397 CH2           1 RES     
     733 CH2         12.4732    19.8390    59.8131 CH2           1 RES     
     734 CH1         13.0665    20.5932    58.6086 CH1           1 RES     
     735 CH3         12.4734    21.9360    58.5308 CH3           1 RES     
     736 CH3         12.7697    19.8541    57.3731 CH3           1 RES     
     737 CH3         19.6775    15.5098    28.0404 CH3           1 RES     
     738 CH3         21.5916    16.8767    28.0125 CH3           1 RES     
     739 CH3         19.9030    17.2663    26.6785 CH3           1 RES     
     740 NL          20.2632    16.8024    27.8641 NL            1 RES     
     741 CH2         19.6304    17.6892    28.7310 CH2           1 RES     
     742 CH2         20.0690    17.1231    30.0944 CH2           1 RES     
     743 OA          19.4859    17.9467    31.1839 OA            1 RES     
     744 P           20.5197    19.1194    31.5246 P             1 RES     
     745 OM          21.8678    18.4171    32.0240 OM            1 RES     
     746 OM          20.6800    19.9953    30.1953 OM            1 RES     
     747 OA          19.9254    20.0312    32.6974 OA            1 RES     
     748 CH2         20.9088    21.1058    32.9862 CH2           1 RES     
     749 CH1         20.8671    21.5056    34.2836 CH1           1 RES     
     750 OE          22.2240    20.9427    34.3380 OE            1 RES     
     751 C           22.8762    20.4206    35.5838 C             1 RES     
     752 O           23.7326    19.5379    35.6043 O             1 RES     
     753 CH2         22.1284    21.0261    36.6079 CH2           1 RES     
     754 CH2         22.7186    20.3751    37.8725 CH2           1 RES     
     755 CH2         21.8911    20.7957    39.1013 CH2           1 RES     
     756 CH2         22.4813    20.1447    40.3660 CH2           1 RES     
     757 CH2         21.6538    20.5653    41.5947 CH2           1 RES     
     758 CH2         22.2440    19.9143    42.8594 CH2           1 RES     
     759 CH2         21.4164    20.3349    44.0881 CH2           1 RES     
     760 CH2         22.0067    19.6840    45.3528 CH2           1 RES     
     761 CH2         21.1791    20.1046    46.5815 CH2           1 RES     
     762 CH2         21.7694    19.4536    47.8462 CH2           1 RES     
     763 CH2         20.9418    19.8742    49.0749 CH2           1 RES     
     764 CH2         21.5321    19.2232    50.3396 CH2           1 RES     
     765 CH2         20.7045    19.6438    51.5684 CH2           1 RES     
     766 CH2         21.2947    18.9928    52.8330 CH2           1 RES     
     767 CH2         20.4672    19.4134    54.0618 CH2           1 RES     
     768 CH2         21.0574    18.7625    55.3265 CH2           1 RES     
     769 CH3         20.2675    19.1640    56.4993 CH3           1 RES     
     770 CH2         19.9006    20.5914    35.0594 CH2           1 RES     
     771 OE          20.6070    20.2722    36.3018 OE            1 RES     
     772 C           19.5596    19.3991    36.9269 C             1 RES     
     773 O           18.4763    19.1313    36.4095 O             1 RES     
     774 CH2         20.0549    19.1944    38.2259 CH2           1 RES     
     775 CH2         18.9071    18.4152    38.8945 CH2           1 RES     
     776 CH2         19.2038    18.2513    40.3968 CH2           1 RES     
     777 CH2         18.0560    17.4721    41.0654 CH2           1 RES     
     778 CH2         18.3527    17.3083    42.5676 CH2           1 RES     
     779 CH2         17.2049    16.5291    43.2363 CH2           1 RES     
     780 CH2         17.5016    16.3652    44.7385 CH2           1 RES     
     781 CH2         16.3538    15.5860    45.4072 CH2           1 RES     
     782 CH2         16.6505    15.4221    46.9094 CH2           1 RES     
     783 CH2         15.5027    14.6430    47.5781 CH2           1 RES     
     784 CH2         15.7993    14.4791    49.0803 CH2           1 RES     
     785 CH2         14.6516    13.6999    49.7490 CH2           1 RES     
     786 CH2         14.9482    13.5360    51.2512 CH2           1 RES     
     787 CH2         13.8005    12.7569    51.9199 CH2           1 RES     
     788 CH2         14.0971    12.5930    53.4221 CH2           1 RES     
     789 CH2         12.9494    11.8138    54.0908 CH2           1 RES     
     790 CH3         13.2326    11.6574    55.5247 CH3           1 RES     
     791 CH3          8.0938     9.7179    28.0404 CH3           1 RES     
     792 CH3         10.0892    10.9631    28.0125 CH3           1 RES     
     793 CH3          8.4281    11.4570    26.6785 CH3           1 RES     
     794 NL           8.7588    10.9716    27.8641 NL            1 RES     
     795 CH2          8.1823    11.8960    28.7310 CH2           1 RES     
     796 CH2          8.5850    11.3038    30.0944 CH2           1 RES     
     797 OA           8.0542    12.1620    31.1839 OA            1 RES     
     798 P            9.1589    13.2682    31.5246 P             1 RES     
     799 OM          10.4607    12.4833    32.0240 OM            1 RES     
     800 OM           9.3734    14.1324    30.1953 OM            1 RES     
     801 OA           8.6225    14.2151    32.6974 OA            1 RES     
     802 CH2          9.6708    15.2265    32.9862 CH2           1 RES     
     803 CH1          9.6541    15.6282    34.2836 CH1           1 RES     
     804 OE          10.9733    14.9819    34.3380 OE            1 RES     
     805 C           11.5918    14.4202    35.5838 C             1 RES     
     806 O           12.3916    13.4860    35.6043 O             1 RES     
     807 CH2         10.8831    15.0710    36.6079 CH2           1 RES     
     808 CH2         11.4317    14.3846    37.8725 CH2           1 RES     
     809 CH2         10.6319    14.8559    39.1013 CH2           1 RES     
     810 CH2         11.1806    14.1694    40.3660 CH2           1 RES     
     811 CH2         10.3807    14.6407    41.5947 CH2           1 RES     
     812 CH2         10.9294    13.9543    42.8594 CH2           1 RES     
     813 CH2         10.1296    14.4256    44.0881 CH2           1 RES     
     814 CH2         10.6782    13.7391    45.3528 CH2           1 RES     
     815 CH2          9.8784    14.2104    46.5815 CH2           1 RES     
     816 CH2         10.4270    13.5240    47.8462 CH2           1 RES     
     817 CH2          9.6272    13.9952    49.0749 CH2           1 RES     
     818 CH2         10.1758    13.3088    50.3396 CH2           1 RES     
     819 CH2          9.3760    13.7801    51.5684 CH2           1 RES     
     820 CH2          9.9246    13.0936    52.8330 CH2           1 RES     
     821 CH2          9.1248    13.5649    54.0618 CH2           1 RES     
     822 CH2          9.6734    12.8785    55.3265 CH2           1 RES     
     823 CH3          8.9100    13.3283    56.4993 CH3           1 RES     
     824 CH2          8.6327    14.7759    35.0594 CH2           1 RES     
     825 OE           9.3178    14.4133    36.3018 OE            1 RES     
     826 C            8.2181    13.6071    36.9269 C             1 RES     
     827 O            7.1202    13.4072    36.4095 O             1 RES     
     828 CH2          8.6997    13.3719    38.2259 CH2           1 RES     
     829 CH2          7.5056    12.6657    38.8945 CH2           1 RES     
     830 CH2          7.7915    12.4836    40.3968 CH2           1 RES     
     831 CH2          6.5975    11.7774    41.0654 CH2           1 RES     
     832 CH2          6.8834    11.5953    42.5676 CH2           1 RES     
     833 CH2          5.6894    10.8891    43.2363 CH2           1 RES     
     834 CH2          5.9753    10.7071    44.7385 CH2           1 RES     
     835 CH2          4.7813    10.0008    45.4072 CH2           1 RES     
     836 CH2          5.0672     9.8188    46.9094 CH2           1 RES     
     837 CH2          3.8731     9.1125    47.5781 CH2           1 RES     
     838 CH2          4.1590     8.9305    49.0803 CH2           1 RES     
     839 CH2          2.9650     8.2242    49.7490 CH2           1 RES     
     840 CH2          3.2509     8.0422    51.2512 CH2           1 RES     
     841 CH2          2.0569     7.3360    51.9199 CH2           1 RES     
     842 CH2          2.3428     7.1539    53.4221 CH2           1 RES     
     843 CH2          1.1488     6.4477    54.0908 CH2           1 RES     
     844 CH3          1.4217     6.2739    55.5247 CH3           1 RES     
     845 CH3         25.4693     3.9261    28.0404 CH3           1 RES     
     846 CH3         27.6985     3.1757    28.0125 CH3           1 RES     
     847 CH3         27.0249     4.7724    26.6785 CH3           1 RES     
     848 NL          26.8600     4.2087    27.8641 NL            1 RES     
     849 CH2         27.2079     5.2411    28.7310 CH2           1 RES     
     850 CH2         27.0062     4.5539    30.0944 CH2           1 RES     
     851 OA          27.3320     5.5090    31.1839 OA            1 RES     
     852 P           28.8880     5.3583    31.5246 P             1 RES     
     853 OM          29.1086     3.8543    32.0240 OM            1 RES     
     854 OM          29.6918     5.7415    30.1953 OM            1 RES     
     855 OA          29.2788     6.3740    32.6974 OA            1 RES     
     856 CH2         30.7258     6.2067    32.9862 CH2           1 RES     
     857 CH1         31.0254     6.4747    34.2836 CH1           1 RES     
     858 OE          31.3642     5.0453    34.3380 OE            1 RES     
     859 C           31.3231     4.2108    35.5838 C             1 RES     
     860 O           31.1095     2.9997    35.6043 O             1 RES     
     861 CH2         31.3757     5.1716    36.6079 CH2           1 RES     
     862 CH2         31.1939     4.3118    37.8725 CH2           1 RES     
     863 CH2         31.0500     5.2289    39.1013 CH2           1 RES     
     864 CH2         30.8682     4.3692    40.3660 CH2           1 RES     
     865 CH2         30.7242     5.2863    41.5947 CH2           1 RES     
     866 CH2         30.5425     4.4265    42.8594 CH2           1 RES     
     867 CH2         30.3985     5.3436    44.0881 CH2           1 RES     
     868 CH2         30.2167     4.4839    45.3528 CH2           1 RES     
     869 CH2         30.0728     5.4010    46.5815 CH2           1 RES     
     870 CH2         29.8910     4.5413    47.8462 CH2           1 RES     
     871 CH2         29.7470     5.4584    49.0749 CH2           1 RES     
     872 CH2         29.5653     4.5986    50.3396 CH2           1 RES     
     873 CH2         29.4213     5.5157    51.5684 CH2           1 RES     
     874 CH2         29.2395     4.6560    52.8330 CH2           1 RES     
     875 CH2         29.0956     5.5731    54.0618 CH2           1 RES     
     876 CH2         28.9138     4.7134    55.3265 CH2           1 RES     
     877 CH3         28.7764     5.5888    56.4993 CH3           1 RES     
     878 CH2         29.7183     6.7223    35.0594 CH2           1 RES     
     879 OE          29.8734     5.9629    36.3018 OE            1 RES     
     880 C           28.5522     6.3002    36.9269 C             1 RES     
     881 O           27.7006     7.0212    36.4095 O             1 RES     
     882 CH2         28.6765     5.7789    38.2259 CH2           1 RES     
     883 CH2         27.3726     6.2526    38.8945 CH2           1 RES     
     884 CH2         27.4136     5.9161    40.3968 CH2           1 RES     
     885 CH2         26.1097     6.3898    41.0654 CH2           1 RES     
     886 CH2         26.1507     6.0534    42.5676 CH2           1 RES     
     887 CH2         24.8468     6.5271    43.2363 CH2           1 RES     
     888 CH2         24.8878     6.1906    44.7385 CH2           1 RES     
     889 CH2         23.5839     6.6643    45.4072 CH2           1 RES     
     890 CH2         23.6249     6.3279    46.9094 CH2           1 RES     
     891 CH2         22.3210     6.8016    47.5781 CH2           1 RES     
     892 CH2         22.3620     6.4652    49.0803 CH2           1 RES     
     893 CH2         21.0581     6.9389    49.7490 CH2           1 RES     
     894 CH2         21.0991     6.6024    51.2512 CH2           1 RES     
     895 CH2         19.7953     7.0761    51.9199 CH2           1 RES     
     896 CH2         19.8362     6.7397    53.4221 CH2           1 RES     
     897 CH2         18.5324     7.2134    54.0908 CH2           1 RES     
     898 CH3         18.5715     6.8922    55.5247 CH3           1 RES     
     899 CH3          8.0938     3.9261    28.0404 CH3           1 RES     
     900 CH3         10.1951     4.9829    28.0125 CH3           1 RES     
     901 CH3          8.5863     5.6271    26.6785 CH3           1 RES     
     902 NL           8.8710     5.1134    27.8641 NL            1 RES     
     903 CH2          8.3818     6.0869    28.7310 CH2           1 RES     
     904 CH2          8.7284     5.4602    30.0944 CH2           1 RES     
     905 OA           8.2787     6.3635    31.1839 OA            1 RES     
     906 P            9.4802     7.3636    31.5246 P             1 RES     
     907 OM          10.7045     6.4626    32.0240 OM            1 RES     
     908 OM           9.7732     8.2045    30.1953 OM            1 RES     
     909 OA           9.0330     8.3558    32.6974 OA            1 RES     
     910 CH2         10.1697     9.2667    32.9862 CH2           1 RES     
     911 CH1         10.1899     9.6682    34.2836 CH1           1 RES     
     912 OE          11.4443     8.9036    34.3380 OE            1 RES     
     913 C           12.0086     8.2875    35.5838 C             1 RES     
     914 O           12.7193     7.2838    35.6043 O             1 RES     
     915 CH2         11.3626     9.0006    36.6079 CH2           1 RES     
     916 CH2         11.8459     8.2667    37.8725 CH2           1 RES     
     917 CH2         11.0927     8.8094    39.1013 CH2           1 RES     
     918 CH2         11.5760     8.0755    40.3660 CH2           1 RES     
     919 CH2         10.8229     8.6182    41.5947 CH2           1 RES     
     920 CH2         11.3062     7.8843    42.8594 CH2           1 RES     
     921 CH2         10.5530     8.4270    44.0881 CH2           1 RES     
     922 CH2         11.0363     7.6931    45.3528 CH2           1 RES     
     923 CH2         10.2831     8.2358    46.5815 CH2           1 RES     
     924 CH2         10.7664     7.5019    47.8462 CH2           1 RES     
     925 CH2         10.0132     8.0446    49.0749 CH2           1 RES     
     926 CH2         10.4965     7.3107    50.3396 CH2           1 RES     
     927 CH2          9.7434     7.8534    51.5684 CH2           1 RES     
     928 CH2         10.2267     7.1195    52.8330 CH2           1 RES     
     929 CH2          9.4735     7.6622    54.0618 CH2           1 RES     
     930 CH2          9.9568     6.9283    55.3265 CH2           1 RES     
     931 CH3          9.2378     7.4463    56.4993 CH3           1 RES     
     932 CH2          9.0945     8.9132    35.0594 CH2           1 RES     
     933 OE           9.7435     8.4893    36.3018 OE            1 RES     
     934 C            8.5745     7.7874    36.9269 C             1 RES     
     935 O            7.4629     7.6891    36.4095 O             1 RES     
     936 CH2          9.0324     7.5090    38.2259 CH2           1 RES     
     937 CH2          7.7786     6.9153    38.8945 CH2           1 RES     
     938 CH2          8.0466     6.7078    40.3968 CH2           1 RES     
     939 CH2          6.7928     6.1142    41.0654 CH2           1 RES     
     940 CH2          7.0608     5.9067    42.5676 CH2           1 RES     
     941 CH2          5.8070     5.3130    43.2363 CH2           1 RES     
     942 CH2          6.0750     5.1055    44.7385 CH2           1 RES     
     943 CH2          4.8212     4.5118    45.4072 CH2           1 RES     
     944 CH2          5.0892     4.3043    46.9094 CH2           1 RES     
     945 CH2          3.8354     3.7106    47.5781 CH2           1 RES     
     946 CH2          4.1034     3.5031    49.0803 CH2           1 RES     
     947 CH2          2.8496     2.9094    49.7490 CH2           1 RES     
     948 CH2          3.1176     2.7019    51.2512 CH2           1 RES     
     949 CH2          1.8638     2.1082    51.9199 CH2           1 RES     
     950 CH2          2.1318     1.9007    53.4221 CH2           1 RES     
     951 CH2          0.8780     1.3070    54.0908 CH2           1 RES     
     952 CH3          1.1338     1.1089    55.5247 CH3           1 RES     
     953 CH3         13.8856    15.5098    28.0404 CH3           1 RES     
     954 CH3         16.2359    15.6022    28.0125 CH3           1 RES     
     955 CH3         15.0380    16.8545    26.6785 CH3           1 RES     
     956 NL          15.0846    16.2690    27.8641 NL            1 RES     
     957 CH2         15.0421    17.3576    28.7310 CH2           1 RES     
     958 CH2         15.0983    16.6437    30.0944 CH2           1 RES     
     959 OA          15.0627    17.6521    31.1839 OA            1 RES     
     960 P           16.5704    18.0653    31.5246 P             1 RES     
     961 OM          17.3120    16.7384    32.0240 OM            1 RES     
     962 OM          17.1851    18.7096    30.1953 OM            1 RES     
     963 OA          16.5739    19.1536    32.6974 OA            1 RES     
     964 CH2         17.9857    19.5124    32.9862 CH2           1 RES     
     965 CH1         18.1703    19.8695    34.2836 CH1           1 RES     
     966 OE          18.9957    18.6544    34.3380 OE            1 RES     
     967 C           19.2544    17.8600    35.5838 C             1 RES     
     968 O           19.4860    16.6522    35.6043 O             1 RES     
     969 CH2         18.9615    18.7765    36.6079 CH2           1 RES     
     970 CH2         19.0978    17.9084    37.8725 CH2           1 RES     
     971 CH2         18.6367    18.7141    39.1013 CH2           1 RES     
     972 CH2         18.7730    17.8460    40.3660 CH2           1 RES     
     973 CH2         18.3119    18.6518    41.5947 CH2           1 RES     
     974 CH2         18.4482    17.7836    42.8594 CH2           1 RES     
     975 CH2         17.9871    18.5894    44.0881 CH2           1 RES     
     976 CH2         18.1234    17.7213    45.3528 CH2           1 RES     
     977 CH2         17.6623    18.5270    46.5815 CH2           1 RES     
     978 CH2         17.7985    17.6589    47.8462 CH2           1 RES     
     979 CH2         17.3375    18.4647    49.0749 CH2           1 RES     
     980 CH2         17.4737    17.5965    50.3396 CH2           1 RES     
     981 CH2         17.0127    18.4023    51.5684 CH2           1 RES     
     982 CH2         17.1489    17.5342    52.8330 CH2           1 RES     
     983 CH2         16.6879    18.3399    54.0618 CH2           1 RES     
     984 CH2         16.8241    17.4718    55.3265 CH2           1 RES     
     985 CH3         16.3840    18.2409    56.4993 CH3           1 RES     
     986 CH2         16.8607    19.6356    35.0594 CH2           1 RES     
     987 OE          17.2760    18.9811    36.3018 OE            1 RES     
     988 C           15.9213    18.8259    36.9269 C             1 RES     
     989 O           14.8687    19.1965    36.4095 O             1 RES     
     990 CH2         16.2230    18.3830    38.2259 CH2           1 RES     
     991 CH2         14.8359    18.3615    38.8945 CH2           1 RES     
     992 CH2         14.9940    18.0616    40.3968 CH2           1 RES     
     993 CH2         13.6069    18.0401    41.0654 CH2           1 RES     
     994 CH2         13.7650    17.7403    42.5676 CH2           1 RES     
     995 CH2         12.3779    17.7187    43.2363 CH2           1 RES     
     996 CH2         12.5360    17.4189    44.7385 CH2           1 RES     
     997 CH2         11.1489    17.3973    45.4072 CH2           1 RES     
     998 CH2         11.3070    17.0975    46.9094 CH2           1 RES     
     999 CH2          9.9199    17.0760    47.5781 CH2           1 RES     
    1000 CH2         10.0779    16.7762    49.0803 CH2           1 RES     
    1001 CH2          8.6909    16.7546    49.7490 CH2           1 RES     
    1002 CH2          8.8489    16.4548    51.2512 CH2           1 RES     
    1003 CH2          7.4618    16.4332    51.9199 CH2           1 RES     
    1004 CH2          7.6199    16.1334    53.4221 CH2           1 RES     
    1005 CH2          6.2328    16.1119    54.0908 CH2           1 RES     
    1006 CH3          6.3837    15.8257    55.5247 CH3           1 RES     
    1007 CH3          8.0938    15.5098    28.0404 CH3           1 RES     
    1008 CH3         10.0331    16.8407    28.0125 CH3           1 RES     
    1009 CH3          8.3521    17.2618    26.6785 CH3           1 RES     
    1010 NL           8.7035    16.7912    27.8641 NL            1 RES     
    1011 CH2          8.0874    17.6897    28.7310 CH2           1 RES     
    1012 CH2          8.5154    17.1155    30.0944 CH2           1 RES     
    1013 OA           7.9478    17.9498    31.1839 OA            1 RES     
    1014 P            9.0033    19.1030    31.5246 P             1 RES     
    1015 OM          10.3380    18.3756    32.0240 OM            1 RES     
    1016 OM           9.1800    19.9758    30.1953 OM            1 RES     
    1017 OA           8.4262    20.0257    32.6974 OA            1 RES     
    1018 CH2          9.4294    21.0818    32.9862 CH2           1 RES     
    1019 CH1          9.3952    21.4823    34.2836 CH1           1 RES     
    1020 OE          10.7413    20.8942    34.3380 OE            1 RES     
    1021 C           11.3837    20.3600    35.5838 C             1 RES     
    1022 O           12.2234    19.4615    35.6043 O             1 RES     
    1023 CH2         10.6473    20.9793    36.6079 CH2           1 RES     
    1024 CH2         11.2253    20.3174    37.8725 CH2           1 RES     
    1025 CH2         10.4057    20.7534    39.1013 CH2           1 RES     
    1026 CH2         10.9837    20.0915    40.3660 CH2           1 RES     
    1027 CH2         10.1642    20.5275    41.5947 CH2           1 RES     
    1028 CH2         10.7422    19.8656    42.8594 CH2           1 RES     
    1029 CH2          9.9226    20.3016    44.0881 CH2           1 RES     
    1030 CH2         10.5006    19.6397    45.3528 CH2           1 RES     
    1031 CH2          9.6810    20.0757    46.5815 CH2           1 RES     
    1032 CH2         10.2590    19.4138    47.8462 CH2           1 RES     
    1033 CH2          9.4394    19.8498    49.0749 CH2           1 RES     
    1034 CH2         10.0174    19.1879    50.3396 CH2           1 RES     
    1035 CH2          9.1978    19.6239    51.5684 CH2           1 RES     
    1036 CH2          9.7758    18.9620    52.8330 CH2           1 RES     
    1037 CH2          8.9563    19.3980    54.0618 CH2           1 RES     
    1038 CH2          9.5343    18.7361    55.3265 CH2           1 RES     
    1039 CH3          8.7519    19.1523    56.4993 CH3           1 RES     
    1040 CH2          8.4118    20.5864    35.0594 CH2           1 RES     
    1041 OE           9.1121    20.2540    36.3018 OE            1 RES     
    1042 C            8.0486    19.4006    36.9269 C             1 RES     
    1043 O            6.9605    19.1531    36.4095 O             1 RES     
    1044 CH2          8.5399    19.1867    38.2259 CH2           1 RES     
    1045 CH2          7.3778    18.4291    38.8945 CH2           1 RES     
    1046 CH2          7.6714    18.2597    40.3968 CH2           1 RES     
    1047 CH2          6.5092    17.5021    41.0654 CH2           1 RES     
    1048 CH2          6.8028    17.3327    42.5676 CH2           1 RES     
    1049 CH2          5.6407    16.5751    43.2363 CH2           1 RES     
    1050 CH2          5.9342    16.4057    44.7385 CH2           1 RES     
    1051 CH2          4.7721    15.6481    45.4072 CH2           1 RES     
    1052 CH2          5.0656    15.4787    46.9094 CH2           1 RES     
    1053 CH2          3.9035    14.7211    47.5781 CH2           1 RES     
    1054 CH2          4.1971    14.5517    49.0803 CH2           1 RES     
    1055 CH2          3.0349    13.7941    49.7490 CH2           1 RES     
    1056 CH2          3.3285    13.6247    51.2512 CH2           1 RES     
    1057 CH2          2.1664    12.8671    51.9199 CH2           1 RES     
    1058 CH2          2.4599    12.6977    53.4221 CH2           1 RES     
    1059 CH2          1.2978    11.9401    54.0908 CH2           1 RES     
    1060 CH3          1.5780    11.7784    55.5247 CH3           1 RES     
    1061 CH3         13.8856    21.3016    28.0404 CH3           1 RES     
    1062 CH3         16.1520    21.9308    28.0125 CH3           1 RES     
    1063 CH3         14.6988    22.8748    26.6785 CH3           1 RES     
    1064 NL          14.8784    22.3156    27.8641 NL            1 RES     
    1065 CH2         14.5874    23.3655    28.7310 CH2           1 RES     
    1066 CH2         14.8058    22.6835    30.0944 CH2           1 RES     
    1067 OA          14.5398    23.6569    31.1839 OA            1 RES     
    1068 P           15.9125    24.4049    31.5246 P             1 RES     
    1069 OM          16.9388    23.2836    32.0240 OM            1 RES     
    1070 OM          16.3630    25.1730    30.1953 OM            1 RES     
    1071 OA          15.6663    25.4650    32.6974 OA            1 RES     
    1072 CH2         16.9580    26.1382    32.9862 CH2           1 RES     
    1073 CH1         17.0557    26.5281    34.2836 CH1           1 RES     
    1074 OE          18.1380    25.5347    34.3380 OE            1 RES     
    1075 C           18.5720    24.8209    35.5838 C             1 RES     
    1076 O           19.0746    23.6984    35.6043 O             1 RES     
    1077 CH2         18.0767    25.6457    36.6079 CH2           1 RES     
    1078 CH2         18.4085    24.8320    37.8725 CH2           1 RES     
    1079 CH2         17.7749    25.5105    39.1013 CH2           1 RES     
    1080 CH2         18.1066    24.6968    40.3660 CH2           1 RES     
    1081 CH2         17.4730    25.3753    41.5947 CH2           1 RES     
    1082 CH2         17.8048    24.5616    42.8594 CH2           1 RES     
    1083 CH2         17.1712    25.2401    44.0881 CH2           1 RES     
    1084 CH2         17.5030    24.4264    45.3528 CH2           1 RES     
    1085 CH2         16.8693    25.1049    46.5815 CH2           1 RES     
    1086 CH2         17.2011    24.2911    47.8462 CH2           1 RES     
    1087 CH2         16.5675    24.9696    49.0749 CH2           1 RES     
    1088 CH2         16.8993    24.1559    50.3396 CH2           1 RES     
    1089 CH2         16.2657    24.8344    51.5684 CH2           1 RES     
    1090 CH2         16.5974    24.0207    52.8330 CH2           1 RES     
    1091 CH2         15.9638    24.6992    54.0618 CH2           1 RES     
    1092 CH2         16.2956    23.8855    55.3265 CH2           1 RES     
    1093 CH3         15.6908    24.5331    56.4993 CH3           1 RES     
    1094 CH2         15.8347    25.9999    35.0594 CH2           1 RES     
    1095 OE          16.3891    25.4582    36.3018 OE            1 RES     
    1096 C           15.1062    24.9964    36.9269 C             1 RES     
    1097 O           13.9967    25.1155    36.4095 O             1 RES     
    1098 CH2         15.5014    24.6345    38.2259 CH2           1 RES     
    1099 CH2         14.1563    24.2952    38.8945 CH2           1 RES     
    1100 CH2         14.3789    24.0397    40.3968 CH2           1 RES     
    1101 CH2         13.0338    23.7005    41.0654 CH2           1 RES     
    1102 CH2         13.2565    23.4449    42.5676 CH2           1 RES     
    1103 CH2         11.9113    23.1057    43.2363 CH2           1 RES     
    1104 CH2         12.1340    22.8502    44.7385 CH2           1 RES     
    1105 CH2         10.7888    22.5110    45.4072 CH2           1 RES     
    1106 CH2         11.0115    22.2554    46.9094 CH2           1 RES     
    1107 CH2          9.6663    21.9162    47.5781 CH2           1 RES     
    1108 CH2          9.8890    21.6607    49.0803 CH2           1 RES     
    1109 CH2          8.5438    21.3214    49.7490 CH2           1 RES     
    1110 CH2          8.7665    21.0659    51.2512 CH2           1 RES     
    1111 CH2          7.4213    20.7267    51.9199 CH2           1 RES     
    1112 CH2          7.6440    20.4711    53.4221 CH2           1 RES     
    1113 CH2          6.2988    20.1319    54.0908 CH2           1 RES     
    1114 CH3          6.5114    19.8880    55.5247 CH3           1 RES     
    1115 CH3         13.8856     3.9261    28.0404 CH3           1 RES     
    1116 CH3         16.1595     4.5276    28.0125 CH3           1 RES     
    1117 CH3         14.7179     5.4893    26.6785 CH3           1 RES     
    1118 NL          14.8907     4.9279    27.8641 NL            1 RES     
    1119 CH2         14.6125     5.9812    28.7310 CH2           1 RES     
    1120 CH2         14.8226     5.2966    30.0944 CH2           1 RES     
    1121 OA          14.5685     6.2732    31.1839 OA            1 RES     
    1122 P           15.9502     7.0044    31.5246 P             1 RES     
    1123 OM          16.9627     5.8706    32.0240 OM            1 RES     
    1124 OM          16.4100     7.7670    30.1953 OM            1 RES     
    1125 OA          15.7169     8.0674    32.6974 OA            1 RES     
    1126 CH2         17.0168     8.7248    32.9862 CH2           1 RES     
    1127 CH1         17.1193     9.1135    34.2836 CH1           1 RES     
    1128 OE          18.1893     8.1070    34.3380 OE            1 RES     
    1129 C           18.6146     7.3879    35.5838 C             1 RES     
    1130 O           19.1034     6.2594    35.6043 O             1 RES     
    1131 CH2         18.1294     8.2188    36.6079 CH2           1 RES     
    1132 CH2         18.4512     7.4011    37.8725 CH2           1 RES     
    1133 CH2         17.8259     8.0872    39.1013 CH2           1 RES     
    1134 CH2         18.1477     7.2695    40.3660 CH2           1 RES     
    1135 CH2         17.5224     7.9557    41.5947 CH2           1 RES     
    1136 CH2         17.8443     7.1380    42.8594 CH2           1 RES     
    1137 CH2         17.2190     7.8242    44.0881 CH2           1 RES     
    1138 CH2         17.5408     7.0065    45.3528 CH2           1 RES     
    1139 CH2         16.9155     7.6926    46.5815 CH2           1 RES     
    1140 CH2         17.2373     6.8749    47.8462 CH2           1 RES     
    1141 CH2         16.6120     7.5611    49.0749 CH2           1 RES     
    1142 CH2         16.9339     6.7434    50.3396 CH2           1 RES     
    1143 CH2         16.3086     7.4296    51.5684 CH2           1 RES     
    1144 CH2         16.6304     6.6119    52.8330 CH2           1 RES     
    1145 CH2         16.0051     7.2980    54.0618 CH2           1 RES     
    1146 CH2         16.3269     6.4803    55.3265 CH2           1 RES     
    1147 CH3         15.7301     7.1353    56.4993 CH3           1 RES     
    1148 CH2         15.8919     8.6003    35.0594 CH2           1 RES     
    1149 OE          16.4396     8.0518    36.3018 OE            1 RES     
    1150 C           15.1511     7.6057    36.9269 C             1 RES     
    1151 O           14.0432     7.7383    36.4095 O             1 RES     
    1152 CH2         15.5420     7.2390    38.2259 CH2           1 RES     
    1153 CH2         14.1928     6.9162    38.8945 CH2           1 RES     
    1154 CH2         14.4123     6.6579    40.3968 CH2           1 RES     
    1155 CH2         13.0631     6.3352    41.0654 CH2           1 RES     
    1156 CH2         13.2826     6.0769    42.5676 CH2           1 RES     
    1157 CH2         11.9335     5.7541    43.2363 CH2           1 RES     
    1158 CH2         12.1530     5.4959    44.7385 CH2           1 RES     
    1159 CH2         10.8038     5.1731    45.4072 CH2           1 RES     
    1160 CH2         11.0233     4.9149    46.9094 CH2           1 RES     
    1161 CH2          9.6741     4.5921    47.5781 CH2           1 RES     
    1162 CH2          9.8936     4.3338    49.0803 CH2           1 RES     
    1163 CH2          8.5445     4.0111    49.7490 CH2           1 RES     
    1164 CH2          8.7640     3.7528    51.2512 CH2           1 RES     
    1165 CH2          7.4148     3.4300    51.9199 CH2           1 RES     
    1166 CH2          7.6343     3.1718    53.4221 CH2           1 RES     
    1167 CH2          6.2851     2.8490    54.0908 CH2           1 RES     
    1168 CH3          6.4947     2.6025    55.5247 CH3           1 RES     
    1169 CH3         19.7307     6.8125    53.8779 CH3           1 RES     
    1170 CH1         19.6755     5.8881    52.7363 CH1           1 RES     
    1171 CH3         20.8969     6.0308    51.9308 CH3           1 RES     
    1172 CH2         18.4467     6.2171    51.8683 CH2           1 RES     
    1173 CH2         18.8519     6.2164    50.3825 CH2           1 RES     
    1174 CH2         17.6231     6.5455    49.5145 CH2           1 RES     
    1175 CH2         18.0282     6.5448    48.0287 CH2           1 RES     
    1176 CH2         16.7994     6.8738    47.1607 CH2           1 RES     
    1177 CH2         17.2046     6.8731    45.6749 CH2           1 RES     
    1178 CH2         15.9758     7.2022    44.8069 CH2           1 RES     
    1179 CH2         16.3809     7.2015    43.3211 CH2           1 RES     
    1180 CH2         15.1521     7.5305    42.4531 CH2           1 RES     
    1181 CH2         15.5573     7.5298    40.9674 CH2           1 RES     
    1182 CH2         14.3285     7.8589    40.0993 CH2           1 RES     
    1183 CH2         14.7336     7.8582    38.6136 CH2           1 RES     
    1184 CH2         13.5048     8.1872    37.7455 CH2           1 RES     
    1185 CH2         13.9100     8.1865    36.2598 CH2           1 RES     
    1186 CH2         12.6812     8.5156    35.3918 CH2           1 RES     
    1187 OE          13.0679     8.5149    33.9735 OE            1 RES     
    1188 C           13.5621     9.7185    33.2271 C             1 RES     
    1189 O           13.8856     9.7179    32.0404 O             1 RES     
    1190 CH2         13.4710    10.6049    34.3455 CH2           1 RES     
    1191 CH2         12.9501     9.8330    35.5721 CH2           1 RES     
    1192 CH2         12.8519    10.7876    36.7766 CH2           1 RES     
    1193 CH2         12.3310    10.0157    38.0031 CH2           1 RES     
    1194 CH2         12.2329    10.9703    39.2076 CH2           1 RES     
    1195 CH2         11.7120    10.1984    40.4342 CH2           1 RES     
    1196 CH2         11.6139    11.1529    41.6386 CH2           1 RES     
    1197 CH2         11.0930    10.3811    42.8652 CH2           1 RES     
    1198 CH2         10.9949    11.3356    44.0697 CH2           1 RES     
    1199 CH2         10.4739    10.5638    45.2962 CH2           1 RES     
    1200 CH2         10.3758    11.5183    46.5007 CH2           1 RES     
    1201 CH2          9.8549    10.7464    47.7273 CH2           1 RES     
    1202 CH2          9.7568    11.7010    48.9318 CH2           1 RES     
    1203 CH2          9.2359    10.9291    50.1583 CH2           1 RES     
    1204 CH1          9.1378    11.8837    51.3628 CH1           1 RES     
    1205 CH3         10.3569    12.7013    51.4406 CH3           1 RES     
    1206 CH3          8.9934    11.1004    52.5983 CH3           1 RES     
    1207 CH3         13.6349    17.8517    53.8779 CH3           1 RES     
    1208 CH1         13.4918    16.9368    52.7363 CH1           1 RES     
    1209 CH3         14.7212    16.9623    51.9308 CH3           1 RES     
    1210 CH2         12.3000    17.3816    51.8683 CH2           1 RES     
    1211 CH2         12.7032    17.3422    50.3825 CH2           1 RES     
    1212 CH2         11.5115    17.7870    49.5145 CH2           1 RES     
    1213 CH2         11.9147    17.7477    48.0287 CH2           1 RES     
    1214 CH2         10.7229    18.1925    47.1607 CH2           1 RES     
    1215 CH2         11.1261    18.1531    45.6749 CH2           1 RES     
    1216 CH2          9.9344    18.5979    44.8069 CH2           1 RES     
    1217 CH2         10.3376    18.5586    43.3211 CH2           1 RES     
    1218 CH2          9.1458    19.0034    42.4531 CH2           1 RES     
    1219 CH2          9.5490    18.9640    40.9674 CH2           1 RES     
    1220 CH2          8.3572    19.4088    40.0993 CH2           1 RES     
    1221 CH2          8.7604    19.3694    38.6136 CH2           1 RES     
    1222 CH2          7.5687    19.8142    37.7455 CH2           1 RES     
    1223 CH2          7.9719    19.7749    36.2598 CH2           1 RES     
    1224 CH2          6.7801    20.2197    35.3918 CH2           1 RES     
    1225 OE           7.1650    20.1821    33.9735 OE            1 RES     
    1226 C            7.7718    21.3331    33.2271 C             1 RES     
    1227 O            8.0938    21.3016    32.0404 O             1 RES     
    1228 CH2          7.7657    22.2241    34.3455 CH2           1 RES     
    1229 CH2          7.1735    21.5054    35.5721 CH2           1 RES     
    1230 CH2          7.1669    22.4650    36.7766 CH2           1 RES     
    1231 CH2          6.5747    21.7464    38.0031 CH2           1 RES     
    1232 CH2          6.5681    22.7059    39.2076 CH2           1 RES     
    1233 CH2          5.9759    21.9873    40.4342 CH2           1 RES     
    1234 CH2          5.9693    22.9469    41.6386 CH2           1 RES     
    1235 CH2          5.3771    22.2282    42.8652 CH2           1 RES     
    1236 CH2          5.3706    23.1878    44.0697 CH2           1 RES     
    1237 CH2          4.7784    22.4691    45.2962 CH2           1 RES     
    1238 CH2          4.7718    23.4287    46.5007 CH2           1 RES     
    1239 CH2          4.1796    22.7100    47.7273 CH2           1 RES     
    1240 CH2          4.1730    23.6696    48.9318 CH2           1 RES     
    1241 CH2          3.5808    22.9510    50.1583 CH2           1 RES     
    1242 CH1          3.5742    23.9105    51.3628 CH1           1 RES     
    1243 CH3          4.8658    24.6081    51.4406 CH3           1 RES     
    1244 CH3          3.3558    23.1446    52.5983 CH3           1 RES     
    1245 CH3         31.9812    15.9587    53.8779 CH3           1 RES     
    1246 CH1         32.4010    15.1333    52.7363 CH1           1 RES     
    1247 CH3         33.3826    15.8740    51.9308 CH3           1 RES     
    1248 CH2         31.1746    14.7959    51.8683 CH2           1 RES     
    1249 CH2         31.5244    15.0001    50.3825 CH2           1 RES     
    1250 CH2         30.2979    14.6627    49.5145 CH2           1 RES     
    1251 CH2         30.6478    14.8669    48.0287 CH2           1 RES     
    1252 CH2         29.4213    14.5294    47.1607 CH2           1 RES     
    1253 CH2         29.7712    14.7337    45.6749 CH2           1 RES     
    1254 CH2         28.5447    14.3962    44.8069 CH2           1 RES     
    1255 CH2         28.8945    14.6005    43.3211 CH2           1 RES     
    1256 CH2         27.6681    14.2630    42.4531 CH2           1 RES     
    1257 CH2         28.0179    14.4673    40.9674 CH2           1 RES     
    1258 CH2         26.7914    14.1298    40.0993 CH2           1 RES     
    1259 CH2         27.1413    14.3341    38.6136 CH2           1 RES     
    1260 CH2         25.9148    13.9966    37.7455 CH2           1 RES     
    1261 CH2         26.2647    14.2009    36.2598 CH2           1 RES     
    1262 CH2         25.0382    13.8634    35.3918 CH2           1 RES     
    1263 OE          25.3721    14.0584    33.9735 OE            1 RES     
    1264 C           25.1899    15.3466    33.2271 C             1 RES     
    1265 O           25.4693    15.5098    32.0404 O             1 RES     
    1266 CH2         24.6631    16.0653    34.3455 CH2           1 RES     
    1267 CH2         24.6040    15.1360    35.5721 CH2           1 RES     
    1268 CH2         24.0367    15.9099    36.7766 CH2           1 RES     
    1269 CH2         23.9775    14.9806    38.0031 CH2           1 RES     
    1270 CH2         23.4102    15.7545    39.2076 CH2           1 RES     
    1271 CH2         23.3511    14.8252    40.4342 CH2           1 RES     
    1272 CH2         22.7838    15.5991    41.6386 CH2           1 RES     
    1273 CH2         22.7247    14.6698    42.8652 CH2           1 RES     
    1274 CH2         22.1574    15.4437    44.0697 CH2           1 RES     
    1275 CH2         22.0982    14.5144    45.2962 CH2           1 RES     
    1276 CH2         21.5309    15.2883    46.5007 CH2           1 RES     
    1277 CH2         21.4718    14.3589    47.7273 CH2           1 RES     
    1278 CH2         20.9045    15.1329    48.9318 CH2           1 RES     
    1279 CH2         20.8454    14.2035    50.1583 CH2           1 RES     
    1280 CH1         20.2780    14.9775    51.3628 CH1           1 RES     
    1281 CH3         20.9164    16.2993    51.4406 CH3           1 RES     
    1282 CH3         20.5496    14.2287    52.5983 CH3           1 RES     
    1283 CH3         31.9062    22.3849    53.8779 CH3           1 RES     
    1284 CH1         32.4046    21.6045    52.7363 CH1           1 RES     
    1285 CH3         33.3091    22.4376    51.9308 CH3           1 RES     
    1286 CH2         31.2170    21.1488    51.8683 CH2           1 RES     
    1287 CH2         31.5452    21.3862    50.3825 CH2           1 RES     
    1288 CH2         30.3576    20.9305    49.5145 CH2           1 RES     
    1289 CH2         30.6858    21.1680    48.0287 CH2           1 RES     
    1290 CH2         29.4982    20.7123    47.1607 CH2           1 RES     
    1291 CH2         29.8264    20.9497    45.6749 CH2           1 RES     
    1292 CH2         28.6388    20.4940    44.8069 CH2           1 RES     
    1293 CH2         28.9670    20.7315    43.3211 CH2           1 RES     
    1294 CH2         27.7794    20.2758    42.4531 CH2           1 RES     
    1295 CH2         28.1076    20.5132    40.9674 CH2           1 RES     
    1296 CH2         26.9200    20.0575    40.0993 CH2           1 RES     
    1297 CH2         27.2482    20.2950    38.6136 CH2           1 RES     
    1298 CH2         26.0606    19.8393    37.7455 CH2           1 RES     
    1299 CH2         26.3888    20.0767    36.2598 CH2           1 RES     
    1300 CH2         25.2012    19.6210    35.3918 CH2           1 RES     
    1301 OE          25.5145    19.8477    33.9735 OE            1 RES     
    1302 C           25.2072    21.1120    33.2271 C             1 RES     
    1303 O           25.4693    21.3016    32.0404 O             1 RES     
    1304 CH2         24.6127    21.7757    34.3455 CH2           1 RES     
    1305 CH2         24.6447    20.8450    35.5721 CH2           1 RES     
    1306 CH2         24.0044    21.5598    36.7766 CH2           1 RES     
    1307 CH2         24.0364    20.6291    38.0031 CH2           1 RES     
    1308 CH2         23.3962    21.3439    39.2076 CH2           1 RES     
    1309 CH2         23.4282    20.4132    40.4342 CH2           1 RES     
    1310 CH2         22.7879    21.1280    41.6386 CH2           1 RES     
    1311 CH2         22.8199    20.1974    42.8652 CH2           1 RES     
    1312 CH2         22.1797    20.9121    44.0697 CH2           1 RES     
    1313 CH2         22.2117    19.9815    45.2962 CH2           1 RES     
    1314 CH2         21.5714    20.6962    46.5007 CH2           1 RES     
    1315 CH2         21.6034    19.7656    47.7273 CH2           1 RES     
    1316 CH2         20.9632    20.4803    48.9318 CH2           1 RES     
    1317 CH2         20.9952    19.5497    50.1583 CH2           1 RES     
    1318 CH1         20.3549    20.2645    51.3628 CH1           1 RES     
    1319 CH3         20.8610    21.6424    51.4406 CH3           1 RES     
    1320 CH3         20.6983    19.5458    52.5983 CH3           1 RES     
    1321 CH3         24.7503     5.6103    53.8779 CH3           1 RES     
    1322 CH1         24.4953     4.7201    52.7363 CH1           1 RES     
    1323 CH3         25.7185     4.5936    51.9308 CH3           1 RES     
    1324 CH2         23.3676     5.3086    51.8683 CH2           1 RES     
    1325 CH2         23.7629     5.2198    50.3825 CH2           1 RES     
    1326 CH2         22.6351     5.8083    49.5145 CH2           1 RES     
    1327 CH2         23.0304     5.7195    48.0287 CH2           1 RES     
    1328 CH2         21.9027     6.3080    47.1607 CH2           1 RES     
    1329 CH2         22.2979     6.2192    45.6749 CH2           1 RES     
    1330 CH2         21.1702     6.8077    44.8069 CH2           1 RES     
    1331 CH2         21.5654     6.7188    43.3211 CH2           1 RES     
    1332 CH2         20.4377     7.3074    42.4531 CH2           1 RES     
    1333 CH2         20.8330     7.2185    40.9674 CH2           1 RES     
    1334 CH2         19.7052     7.8071    40.0993 CH2           1 RES     
    1335 CH2         20.1005     7.7182    38.6136 CH2           1 RES     
    1336 CH2         18.9728     8.3068    37.7455 CH2           1 RES     
    1337 CH2         19.3680     8.2179    36.2598 CH2           1 RES     
    1338 CH2         18.2403     8.8064    35.3918 CH2           1 RES     
    1339 OE          18.6176     8.7217    33.9735 OE            1 RES     
    1340 C           19.3618     9.7889    33.2271 C             1 RES     
    1341 O           19.6775     9.7179    32.0404 O             1 RES     
    1342 CH2         19.4657    10.6738    34.3455 CH2           1 RES     
    1343 CH2         18.7894    10.0338    35.5721 CH2           1 RES     
    1344 CH2         18.9013    10.9868    36.7766 CH2           1 RES     
    1345 CH2         18.2249    10.3468    38.0031 CH2           1 RES     
    1346 CH2         18.3368    11.2998    39.2076 CH2           1 RES     
    1347 CH2         17.6605    10.6598    40.4342 CH2           1 RES     
    1348 CH2         17.7724    11.6128    41.6386 CH2           1 RES     
    1349 CH2         17.0960    10.9728    42.8652 CH2           1 RES     
    1350 CH2         17.2079    11.9258    44.0697 CH2           1 RES     
    1351 CH2         16.5315    11.2858    45.2962 CH2           1 RES     
    1352 CH2         16.6435    12.2388    46.5007 CH2           1 RES     
    1353 CH2         15.9671    11.5988    47.7273 CH2           1 RES     
    1354 CH2         16.0790    12.5518    48.9318 CH2           1 RES     
    1355 CH2         15.4026    11.9118    50.1583 CH2           1 RES     
    1356 CH1         15.5146    12.8649    51.3628 CH1           1 RES     
    1357 CH3         16.8824    13.3976    51.4406 CH3           1 RES     
    1358 CH3         15.2033    12.1317    52.5983 CH3           1 RES     
    1359 CH3         26.1338    22.2621    53.8779 CH3           1 RES     
    1360 CH1         26.6173    21.4723    52.7363 CH1           1 RES     
    1361 CH3         27.5375    22.2881    51.9308 CH3           1 RES     
    1362 CH2         25.4212    21.0393    51.8683 CH2           1 RES     
    1363 CH2         25.7539    21.2705    50.3825 CH2           1 RES     
    1364 CH2         24.5578    20.8375    49.5145 CH2           1 RES     
    1365 CH2         24.8905    21.0687    48.0287 CH2           1 RES     
    1366 CH2         23.6944    20.6357    47.1607 CH2           1 RES     
    1367 CH2         24.0271    20.8668    45.6749 CH2           1 RES     
    1368 CH2         22.8310    20.4338    44.8069 CH2           1 RES     
    1369 CH2         23.1637    20.6650    43.3211 CH2           1 RES     
    1370 CH2         21.9676    20.2320    42.4531 CH2           1 RES     
    1371 CH2         22.3003    20.4631    40.9674 CH2           1 RES     
    1372 CH2         21.1042    20.0301    40.0993 CH2           1 RES     
    1373 CH2         21.4369    20.2613    38.6136 CH2           1 RES     
    1374 CH2         20.2408    19.8283    37.7455 CH2           1 RES     
    1375 CH2         20.5735    20.0594    36.2598 CH2           1 RES     
    1376 CH2         19.3774    19.6264    35.3918 CH2           1 RES     
    1377 OE          19.6949    19.8471    33.9735 OE            1 RES     
    1378 C           19.4118    21.1170    33.2271 C             1 RES     
    1379 O           19.6775    21.3016    32.0404 O             1 RES     
    1380 CH2         18.8300    21.7919    34.3455 CH2           1 RES     
    1381 CH2         18.8443    20.8608    35.5721 CH2           1 RES     
    1382 CH2         18.2177    21.5876    36.7766 CH2           1 RES     
    1383 CH2         18.2320    20.6565    38.0031 CH2           1 RES     
    1384 CH2         17.6055    21.3834    39.2076 CH2           1 RES     
    1385 CH2         17.6198    20.4523    40.4342 CH2           1 RES     
    1386 CH2         16.9932    21.1791    41.6386 CH2           1 RES     
    1387 CH2         17.0075    20.2480    42.8652 CH2           1 RES     
    1388 CH2         16.3810    20.9748    44.0697 CH2           1 RES     
    1389 CH2         16.3953    20.0437    45.2962 CH2           1 RES     
    1390 CH2         15.7688    20.7706    46.5007 CH2           1 RES     
    1391 CH2         15.7830    19.8395    47.7273 CH2           1 RES     
    1392 CH2         15.1565    20.5663    48.9318 CH2           1 RES     
    1393 CH2         15.1708    19.6352    50.1583 CH2           1 RES     
    1394 CH1         14.5443    20.3620    51.3628 CH1           1 RES     
    1395 CH3         15.0765    21.7301    51.4406 CH3           1 RES     
    1396 CH3         14.8739    19.6370    52.5983 CH3           1 RES     
    1397 CH3         25.4731     0.9233    53.8779 CH3           1 RES     
    1398 CH1         25.4025     0.0000    52.7363 CH1           1 RES     
    1399 CH3         26.6261     0.1223    51.9308 CH3           1 RES     
    1400 CH2         24.1794     0.3495    51.8683 CH2           1 RES     
    1401 CH2         24.5845     0.3421    50.3825 CH2           1 RES     
    1402 CH2         23.3614     0.6916    49.5145 CH2           1 RES     
    1403 CH2         23.7664     0.6841    48.0287 CH2           1 RES     
    1404 CH2         22.5434     1.0337    47.1607 CH2           1 RES     
    1405 CH2         22.9484     1.0262    45.6749 CH2           1 RES     
    1406 CH2         21.7253     1.3758    44.8069 CH2           1 RES     
    1407 CH2         22.1304     1.3683    43.3211 CH2           1 RES     
    1408 CH2         20.9073     1.7178    42.4531 CH2           1 RES     
    1409 CH2         21.3123     1.7103    40.9674 CH2           1 RES     
    1410 CH2         20.0892     2.0599    40.0993 CH2           1 RES     
    1411 CH2         20.4943     2.0524    38.6136 CH2           1 RES     
    1412 CH2         19.2712     2.4020    37.7455 CH2           1 RES     
    1413 CH2         19.6762     2.3945    36.2598 CH2           1 RES     
    1414 CH2         18.4531     2.7440    35.3918 CH2           1 RES     
    1415 OE          18.8398     2.7369    33.9735 OE            1 RES     
    1416 C           19.3540     3.9320    33.2271 C             1 RES     
    1417 O           19.6775     3.9261    32.0404 O             1 RES     
    1418 CH2         19.2777     4.8198    34.3455 CH2           1 RES     
    1419 CH2         18.7440     4.0568    35.5721 CH2           1 RES     
    1420 CH2         18.6618     5.0128    36.7766 CH2           1 RES     
    1421 CH2         18.1281     4.2498    38.0031 CH2           1 RES     
    1422 CH2         18.0459     5.2058    39.2076 CH2           1 RES     
    1423 CH2         17.5122     4.4428    40.4342 CH2           1 RES     
    1424 CH2         17.4300     5.3989    41.6386 CH2           1 RES     
    1425 CH2         16.8963     4.6358    42.8652 CH2           1 RES     
    1426 CH2         16.8141     5.5919    44.0697 CH2           1 RES     
    1427 CH2         16.2804     4.8288    45.2962 CH2           1 RES     
    1428 CH2         16.1983     5.7849    46.5007 CH2           1 RES     
    1429 CH2         15.6645     5.0218    47.7273 CH2           1 RES     
    1430 CH2         15.5824     5.9779    48.9318 CH2           1 RES     
    1431 CH2         15.0486     5.2148    50.1583 CH2           1 RES     
    1432 CH1         14.9665     6.1709    51.3628 CH1           1 RES     
    1433 CH3         16.1991     6.9680    51.4406 CH3           1 RES     
    1434 CH3         14.8090     5.3901    52.5983 CH3           1 RES     
    1435 CH3         30.5579     5.6298    53.8779 CH3           1 RES     
    1436 CH1         30.3064     4.7386    52.7363 CH1           1 RES     
    1437 CH3         31.5300     4.6169    51.9308 CH3           1 RES     
    1438 CH2         29.1764     5.3228    51.8683 CH2           1 RES     
    1439 CH2         29.5720     5.2355    50.3825 CH2           1 RES     
    1440 CH2         28.4420     5.8197    49.5145 CH2           1 RES     
    1441 CH2         28.8376     5.7324    48.0287 CH2           1 RES     
    1442 CH2         27.7076     6.3166    47.1607 CH2           1 RES     
    1443 CH2         28.1032     6.2293    45.6749 CH2           1 RES     
    1444 CH2         26.9732     6.8134    44.8069 CH2           1 RES     
    1445 CH2         27.3688     6.7261    43.3211 CH2           1 RES     
    1446 CH2         26.2388     7.3103    42.4531 CH2           1 RES     
    1447 CH2         26.6344     7.2230    40.9674 CH2           1 RES     
    1448 CH2         25.5044     7.8072    40.0993 CH2           1 RES     
    1449 CH2         25.9000     7.7199    38.6136 CH2           1 RES     
    1450 CH2         24.7701     8.3041    37.7455 CH2           1 RES     
    1451 CH2         25.1656     8.2167    36.2598 CH2           1 RES     
    1452 CH2         24.0357     8.8009    35.3918 CH2           1 RES     
    1453 OE          24.4133     8.7176    33.9735 OE            1 RES     
    1454 C           25.1534     9.7877    33.2271 C             1 RES     
    1455 O           25.4693     9.7179    32.0404 O             1 RES     
    1456 CH2         25.2539    10.6730    34.3455 CH2           1 RES     
    1457 CH2         24.5800    10.0304    35.5721 CH2           1 RES     
    1458 CH2         24.6883    10.9839    36.7766 CH2           1 RES     
    1459 CH2         24.0143    10.3412    38.0031 CH2           1 RES     
    1460 CH2         24.1226    11.2947    39.2076 CH2           1 RES     
    1461 CH2         23.4487    10.6520    40.4342 CH2           1 RES     
    1462 CH2         23.5570    11.6055    41.6386 CH2           1 RES     
    1463 CH2         22.8830    10.9629    42.8652 CH2           1 RES     
    1464 CH2         22.9913    11.9163    44.0697 CH2           1 RES     
    1465 CH2         22.3174    11.2737    45.2962 CH2           1 RES     
    1466 CH2         22.4257    12.2272    46.5007 CH2           1 RES     
    1467 CH2         21.7517    11.5845    47.7273 CH2           1 RES     
    1468 CH2         21.8600    12.5380    48.9318 CH2           1 RES     
    1469 CH2         21.1861    11.8953    50.1583 CH2           1 RES     
    1470 CH1         21.2944    12.8488    51.3628 CH1           1 RES     
    1471 CH3         22.6601    13.3868    51.4406 CH3           1 RES     
    1472 CH3         20.9859    12.1145    52.5983 CH3           1 RES     
    1473 OW          31.3783    15.8281   108.1380 OW            1 RES     
    1474 HW1         31.5063    14.9141   107.7550 HW1           1 RES     
    1475 HW2         30.4003    16.0271   108.2080 HW2           1 RES     
    1476 OW          13.5103     3.6851    93.2530 OW            1 RES     
    1477 HW1         13.3113     2.9221    93.8660 HW1           1 RES     
    1478 HW2         14.2983     3.4571    92.6810 HW2           1 RES     
    1479 OW           9.8623    10.5741    91.2670 OW            1 RES     
    1480 HW1          8.9493    10.1751    91.3410 HW1           1 RES     
    1481 HW2         10.5293     9.8511    91.0880 HW2           1 RES     
    1482 OW           6.3393    18.8541   105.7910 OW            1 RES     
    1483 HW1          5.7483    18.9961   106.5850 HW1           1 RES     
    1484 HW2          5.9523    19.3271   104.9990 HW2           1 RES     
    1485 OW          30.3033     0.5121   103.4070 OW            1 RES     
    1486 HW1         29.4543     0.0021   103.2760 HW1           1 RES     
    1487 HW2         30.9063     0.0051   104.0230 HW2           1 RES     
    1488 OW          23.9343     7.0951    97.3950 OW            1 RES     
    1489 HW1         23.8433     6.1571    97.7260 HW1           1 RES     
    1490 HW2         23.9423     7.7241    98.1720 HW2           1 RES     
    1491 OW          25.9743     6.2671    99.5480 OW            1 RES     
    1492 HW1         26.5603     6.7131   100.2250 HW1           1 RES     
    1493 HW2         25.1153     5.9911    99.9800 HW2           1 RES     
    1494 OW          19.1743     2.7391    98.0680 OW            1 RES     
    1495 HW1         19.8733     3.4511    98.1130 HW1           1 RES     
    1496 HW2         18.9143     2.4671    98.9950 HW2           1 RES     
    1497 OW           3.2793    19.4951    96.7920 OW            1 RES     
    1498 HW1          4.2653    19.6571    96.7830 HW1           1 RES     
    1499 HW2          3.1003    18.5141    96.7050 HW2           1 RES     
    1500 OW          10.7053    11.8211   100.1120 OW            1 RES     
    1501 HW1         10.9503    10.8621   100.2500 HW1           1 RES     
    1502 HW2         11.4803    12.3091    99.7100 HW2           1 RES     
    1503 OW          24.0003    15.2951    99.8650 OW            1 RES     
    1504 HW1         24.4893    16.1071   100.1830 HW1           1 RES     
    1505 HW2         24.2213    15.1261    98.9050 HW2           1 RES     
    1506 OW          25.7453    18.5391   106.1110 OW            1 RES     
    1507 HW1         25.2103    19.1081   106.7340 HW1           1 RES     
    1508 HW2         26.6733    18.4331   106.4690 HW2           1 RES     
    1509 OW          32.2513     2.6671   104.5810 OW            1 RES     
    1510 HW1         32.6773     2.6501   105.4840 HW1           1 RES     
    1511 HW2         31.3303     3.0511   104.6530 HW2           1 RES     
    1512 OW          23.1333    13.9191    92.1040 OW            1 RES     
    1513 HW1         22.5483    14.4531    91.4950 HW1           1 RES     
    1514 HW2         23.2143    14.3881    92.9840 HW2           1 RES     
    1515 OW           7.4073     6.6231   102.7620 OW            1 RES     
    1516 HW1          7.1743     7.5461   103.0670 HW1           1 RES     
    1517 HW2          6.5713     6.1301   102.5200 HW2           1 RES     
    1518 OW          30.8773    24.9641    95.9720 OW            1 RES     
    1519 HW1         31.2333    25.8161    96.3550 HW1           1 RES     
    1520 HW2         31.5063    24.6221    95.2740 HW2           1 RES     
    1521 OW          18.8823    14.9951    94.7720 OW            1 RES     
    1522 HW1         19.6743    14.9991    95.3810 HW1           1 RES     
    1523 HW2         18.5833    15.9361    94.6060 HW2           1 RES     
    1524 OW          27.2113    13.6941    99.6790 OW            1 RES     
    1525 HW1         27.8433    14.4141    99.9630 HW1           1 RES     
    1526 HW2         27.4953    13.3321    98.7910 HW2           1 RES     
    1527 OW          14.7383    22.5051    97.7750 OW            1 RES     
    1528 HW1         15.4903    21.8471    97.7460 HW1           1 RES     
    1529 HW2         13.8683    22.0221    97.6790 HW2           1 RES     
    1530 OW          31.2193     3.4421    92.3200 OW            1 RES     
    1531 HW1         30.6563     2.6171    92.3150 HW1           1 RES     
    1532 HW2         30.6283     4.2491    92.3250 HW2           1 RES     
    1533 OW          20.1073     6.0001   102.8650 OW            1 RES     
    1534 HW1         19.3413     5.6231   102.3450 HW1           1 RES     
    1535 HW2         20.8213     5.3051   102.9590 HW2           1 RES     
    1536 OW           5.9473    20.4441   101.9290 OW            1 RES     
    1537 HW1          5.5623    20.9531   102.6980 HW1           1 RES     
    1538 HW2          6.3353    19.5831   102.2600 HW2           1 RES     
    1539 OW          19.3483    20.3681   100.1710 OW            1 RES     
    1540 HW1         20.0653    19.6861   100.3090 HW1           1 RES     
    1541 HW2         19.7373    21.2851   100.2660 HW2           1 RES     
    1542 OW          28.8883     4.8601    89.8850 OW            1 RES     
    1543 HW1         28.1893     4.1501    89.7980 HW1           1 RES     
    1544 HW2         29.7913     4.4601    89.7260 HW2           1 RES     
    1545 OW           9.1543     4.5351    96.4170 OW            1 RES     
    1546 HW1         10.1513     4.4841    96.3740 HW1           1 RES     
    1547 HW2          8.8413     5.3721    95.9670 HW2           1 RES     
    1548 OW          32.8803     1.4421    90.9100 OW            1 RES     
    1549 HW1         32.7863     2.0171    91.7230 HW1           1 RES     
    1550 HW2         31.9743     1.2401    90.5390 HW2           1 RES     
    1551 OW          24.7493     5.9141   103.1310 OW            1 RES     
    1552 HW1         25.4523     5.3461   102.7040 HW1           1 RES     
    1553 HW2         24.5393     6.6901   102.5360 HW2           1 RES     
    1554 OW          10.2633     4.4901    99.1390 OW            1 RES     
    1555 HW1          9.4643     5.0901    99.1480 HW1           1 RES     
    1556 HW2         11.0893     5.0351    98.9940 HW2           1 RES     
    1557 OW          13.8903    24.8521    91.7110 OW            1 RES     
    1558 HW1         13.4193    25.6701    92.0370 HW1           1 RES     
    1559 HW2         14.3493    24.4021    92.4780 HW2           1 RES     
    1560 OW           6.4813     9.5321    99.2780 OW            1 RES     
    1561 HW1          6.5473     9.1151    98.3720 HW1           1 RES     
    1562 HW2          7.2683    10.1311    99.4290 HW2           1 RES     
    1563 OW          21.9263     5.1981    97.1070 OW            1 RES     
    1564 HW1         22.3873     4.3591    97.3960 HW1           1 RES     
    1565 HW2         21.0143     5.2361    97.5160 HW2           1 RES     
    1566 OW          10.4203     7.2431    96.6770 OW            1 RES     
    1567 HW1         11.3483     7.5921    96.8090 HW1           1 RES     
    1568 HW2          9.7673     7.9981    96.7440 HW2           1 RES     
    1569 OW           8.8273    17.4301   103.9860 OW            1 RES     
    1570 HW1          8.1723    16.7941   103.5800 HW1           1 RES     
    1571 HW2          9.5943    17.5661   103.3590 HW2           1 RES     
    1572 OW          19.3463    18.8011    95.1050 OW            1 RES     
    1573 HW1         18.8243    19.6211    94.8750 HW1           1 RES     
    1574 HW2         20.2933    19.0541    95.3070 HW2           1 RES     
    1575 OW           5.0113    11.0181   101.9810 OW            1 RES     
    1576 HW1          5.3933    11.1981   101.0760 HW1           1 RES     
    1577 HW2          4.1393    11.4991   102.0780 HW2           1 RES     
    1578 OW          19.7223    25.0101    94.3830 OW            1 RES     
    1579 HW1         19.0583    24.4101    94.8280 HW1           1 RES     
    1580 HW2         19.6463    25.9321    94.7640 HW2           1 RES     
    1581 OW           1.1853    25.1991   109.8070 OW            1 RES     
    1582 HW1          0.4583    24.5571   109.5670 HW1           1 RES     
    1583 HW2          1.0043    26.0841   109.3760 HW2           1 RES     
    1584 OW          25.9693    15.5921   103.7650 OW            1 RES     
    1585 HW1         25.0223    15.4101   104.0270 HW1           1 RES     
    1586 HW2         26.2603    14.9231   103.0810 HW2           1 RES     
    1587 OW           3.9683    20.2341    91.9550 OW            1 RES     
    1588 HW1          3.6043    19.3041    91.9150 HW1           1 RES     
    1589 HW2          3.2123    20.8891    91.9410 HW2           1 RES     
    1590 OW          30.0723    18.8941    89.0910 OW            1 RES     
    1591 HW1         30.9173    18.3601    89.0600 HW1           1 RES     
    1592 HW2         29.2863    18.2761    89.0900 HW2           1 RES     
    1593 OW          25.8103    16.8671    90.3810 OW            1 RES     
    1594 HW1         25.6053    17.1991    91.3010 HW1           1 RES     
    1595 HW2         26.8013    16.7951    90.2650 HW2           1 RES     
    1596 OW          24.1623    21.0901    98.5560 OW            1 RES     
    1597 HW1         23.9963    20.1861    98.1640 HW1           1 RES     
    1598 HW2         24.5113    21.7021    97.8470 HW2           1 RES     
    1599 OW          27.9383     4.6281   101.0270 OW            1 RES     
    1600 HW1         28.0953     3.6551   100.8620 HW1           1 RES     
    1601 HW2         26.9673     4.7831   101.2090 HW2           1 RES     
    1602 OW          13.3803     1.8291    98.0090 OW            1 RES     
    1603 HW1         12.9363     2.4531    97.3670 HW1           1 RES     
    1604 HW2         14.1223     2.3061    98.4790 HW2           1 RES     
    1605 OW          26.9113    16.0021   109.8940 OW            1 RES     
    1606 HW1         27.1303    15.0281   109.9240 HW1           1 RES     
    1607 HW2         25.9203    16.1241   109.9630 HW2           1 RES     
    1608 OW          26.2233    17.3831   101.9600 OW            1 RES     
    1609 HW1         26.9223    16.6701   101.9110 HW1           1 RES     
    1610 HW2         26.6643    18.2801   101.9920 HW2           1 RES     
    1611 OW           5.4663    11.8771   108.9850 OW            1 RES     
    1612 HW1          4.5653    11.5081   109.2100 HW1           1 RES     
    1613 HW2          5.6743    12.6431   109.5930 HW2           1 RES     
    1614 OW          15.0923    20.8151   101.8930 OW            1 RES     
    1615 HW1         15.3353    21.7451   102.1650 HW1           1 RES     
    1616 HW2         15.8943    20.2221   101.9730 HW2           1 RES     
    1617 OW          10.8313     8.1751    98.8800 OW            1 RES     
    1618 HW1         11.7433     8.0601    99.2700 HW1           1 RES     
    1619 HW2         10.3693     8.9401    99.3300 HW2           1 RES     
    1620 OW          29.6413    22.6561   106.3310 OW            1 RES     
    1621 HW1         29.3483    23.5941   106.5170 HW1           1 RES     
    1622 HW2         30.6233    22.5731   106.5030 HW2           1 RES     
    1623 OW          33.3823    11.1251   104.3550 OW            1 RES     
    1624 HW1         33.0273    12.0541   104.4580 HW1           1 RES     
    1625 HW2         33.3413    10.6521   105.2360 HW2           1 RES     
    1626 OW           1.3743     6.8151    97.6480 OW            1 RES     
    1627 HW1          1.5393     6.4551    96.7300 HW1           1 RES     
    1628 HW2          1.0353     7.7531    97.5830 HW2           1 RES     
    1629 OW          11.8543    23.6291    96.4710 OW            1 RES     
    1630 HW1         11.3013    24.4611    96.4290 HW1           1 RES     
    1631 HW2         11.2773    22.8351    96.2770 HW2           1 RES     
    1632 OW          16.0883     1.4721    97.9230 OW            1 RES     
    1633 HW1         16.0293     0.4861    98.0700 HW1           1 RES     
    1634 HW2         17.0223     1.7811    98.1030 HW2           1 RES     
    1635 OW           4.4933     3.4271    98.7720 OW            1 RES     
    1636 HW1          5.2853     4.0161    98.6110 HW1           1 RES     
    1637 HW2          4.8013     2.5451    99.1290 HW2           1 RES     
    1638 OW          19.7723    12.6781    97.4610 OW            1 RES     
    1639 HW1         20.2823    11.9111    97.0750 HW1           1 RES     
    1640 HW2         20.2773    13.0581    98.2360 HW2           1 RES     
    1641 OW          19.5133     2.2881   102.3970 OW            1 RES     
    1642 HW1         18.6153     2.1131   101.9960 HW1           1 RES     
    1643 HW2         20.2083     2.2811   101.6780 HW2           1 RES     
    1644 OW           2.8783    20.7701   102.8950 OW            1 RES     
    1645 HW1          3.4783    21.4841   103.2550 HW1           1 RES     
    1646 HW2          2.5963    21.0101   101.9660 HW2           1 RES     
    1647 OW           9.4783    13.6401    94.7670 OW            1 RES     
    1648 HW1         10.3253    13.7841    95.2790 HW1           1 RES     
    1649 HW2          8.8703    13.0421    95.2900 HW2           1 RES     
    1650 OW          19.9633    24.9151    97.5790 OW            1 RES     
    1651 HW1         20.8443    24.6371    97.1980 HW1           1 RES     
    1652 HW2         20.0133    25.8701    97.8740 HW2           1 RES     
    1653 OW           5.6033     6.2831   100.1750 OW            1 RES     
    1654 HW1          5.1093     6.9311   100.7540 HW1           1 RES     
    1655 HW2          5.2853     5.3541   100.3660 HW2           1 RES     
    1656 OW          12.3773    11.1481    89.7930 OW            1 RES     
    1657 HW1         12.7013    11.9361    90.3150 HW1           1 RES     
    1658 HW2         11.6453    11.4341    89.1750 HW2           1 RES     
    1659 OW          24.4063     3.5801    94.9700 OW            1 RES     
    1660 HW1         24.3993     2.6741    95.3920 HW1           1 RES     
    1661 HW2         25.3463     3.9181    94.9200 HW2           1 RES     
    1662 OW           6.3503     9.6941    95.4140 OW            1 RES     
    1663 HW1          6.0013    10.2151    96.1930 HW1           1 RES     
    1664 HW2          6.6143     8.7781    95.7160 HW2           1 RES     
    1665 OW          20.4273     4.7031    91.1370 OW            1 RES     
    1666 HW1         19.4793     4.6591    90.8240 HW1           1 RES     
    1667 HW2         20.6343     3.8951    91.6880 HW2           1 RES     
    1668 OW          26.4903    16.2381    98.9950 OW            1 RES     
    1669 HW1         27.0173    15.9231    98.2060 HW1           1 RES     
    1670 HW2         27.1163    16.5311    99.7190 HW2           1 RES     
    1671 OW          11.1663    20.1371    96.3770 OW            1 RES     
    1672 HW1         12.1423    20.3551    96.3800 HW1           1 RES     
    1673 HW2         11.0443    19.1501    96.4830 HW2           1 RES     
    1674 OW           0.8803    25.4031    88.8880 OW            1 RES     
    1675 HW1          0.1623    25.1251    89.5250 HW1           1 RES     
    1676 HW2          1.1153    24.6341    88.2930 HW2           1 RES     
    1677 OW          18.2843    23.7101    88.3240 OW            1 RES     
    1678 HW1         19.2833    23.6671    88.3270 HW1           1 RES     
    1679 HW2         17.9913    24.6661    88.2950 HW2           1 RES     
    1680 OW           7.9123    12.8101    88.6650 OW            1 RES     
    1681 HW1          8.6743    13.3401    88.2950 HW1           1 RES     
    1682 HW2          8.1813    11.8501    88.7480 HW2           1 RES     
    1683 OW          11.6983     2.8231   100.4410 OW            1 RES     
    1684 HW1         12.4743     2.3371   100.8430 HW1           1 RES     
    1685 HW2         11.2023     2.2101    99.8260 HW2           1 RES     
    1686 OW          28.9973    11.8741    94.1460 OW            1 RES     
    1687 HW1         29.4113    10.9781    94.3010 HW1           1 RES     
    1688 HW2         29.3423    12.5241    94.8240 HW2           1 RES     
    1689 OW          16.0713     2.6581    95.4860 OW            1 RES     
    1690 HW1         16.4903     3.2541    94.8020 HW1           1 RES     
    1691 HW2         16.7353     1.9731    95.7840 HW2           1 RES     
    1692 OW           5.4353    15.0451    97.0750 OW            1 RES     
    1693 HW1          4.9033    14.3381    97.5400 HW1           1 RES     
    1694 HW2          5.3073    15.9201    97.5410 HW2           1 RES     
    1695 OW          30.7893     0.0021    96.2650 OW            1 RES     
    1696 HW1         30.1083     0.6851    96.0040 HW1           1 RES     
    1697 HW2         31.0653     0.1511    97.2140 HW2           1 RES     
    1698 OW          28.6173    14.6391    97.3460 OW            1 RES     
    1699 HW1         28.8543    14.4151    96.4020 HW1           1 RES     
    1700 HW2         29.4153    14.4981    97.9330 HW2           1 RES     
    1701 OW          15.0703    10.4671   107.0690 OW            1 RES     
    1702 HW1         15.8303    11.1051   107.1860 HW1           1 RES     
    1703 HW2         15.1283     9.7491   107.7640 HW2           1 RES     
    1704 OW          18.8963     5.5501   106.1320 OW            1 RES     
    1705 HW1         18.7643     6.4901   105.8190 HW1           1 RES     
    1706 HW2         19.8503     5.2831   105.9950 HW2           1 RES     
    1707 OW          23.2803     9.5851   105.5010 OW            1 RES     
    1708 HW1         22.6583    10.3611   105.3990 HW1           1 RES     
    1709 HW2         23.5913     9.5301   106.4500 HW2           1 RES     
    1710 OW           4.9243     0.0041    93.8990 OW            1 RES     
    1711 HW1          3.9403     0.0681    93.7360 HW1           1 RES     
    1712 HW2          5.3233     0.9211    93.9010 HW2           1 RES     
    1713 OW          16.6053    14.7621    88.4140 OW            1 RES     
    1714 HW1         16.8283    13.7901    88.3650 HW1           1 RES     
    1715 HW2         17.4493    15.2991    88.4180 HW2           1 RES     
    1716 OW          16.2893     7.1931   109.5830 OW            1 RES     
    1717 HW1         15.3743     7.2511   109.1840 HW1           1 RES     
    1718 HW2         16.6923     8.1081   109.6270 HW2           1 RES     
    1719 OW           1.8813    13.9781    90.0330 OW            1 RES     
    1720 HW1          2.4363    13.2591    90.4500 HW1           1 RES     
    1721 HW2          2.2273    14.8731    90.3150 HW2           1 RES     
    1722 OW           6.5433    21.8641    89.0850 OW            1 RES     
    1723 HW1          7.1573    21.1111    89.3170 HW1           1 RES     
    1724 HW2          5.6013    21.5281    89.0490 HW2           1 RES     
    1725 OW          12.1033    20.2981    92.6560 OW            1 RES     
    1726 HW1         11.6383    20.0861    93.5150 HW1           1 RES     
    1727 HW2         13.0813    20.4201    92.8270 HW2           1 RES     
    1728 OW          29.8313     7.3241    94.1120 OW            1 RES     
    1729 HW1         30.7753     7.0101    94.0120 HW1           1 RES     
    1730 HW2         29.8163     8.3221    94.1730 HW2           1 RES     
    1731 OW          12.5543    17.9671    90.8040 OW            1 RES     
    1732 HW1         11.7523    18.4931    91.0870 HW1           1 RES     
    1733 HW2         13.3843    18.4541    91.0750 HW2           1 RES     
    1734 OW          10.7433    19.4111   103.0010 OW            1 RES     
    1735 HW1         11.7353    19.4661   103.1100 HW1           1 RES     
    1736 HW2         10.3583    20.3341   102.9780 HW2           1 RES     
    1737 OW          26.3463     6.6511   106.0990 OW            1 RES     
    1738 HW1         26.2053     7.0551   107.0020 HW1           1 RES     
    1739 HW2         26.4203     7.3771   105.4160 HW2           1 RES     
    1740 OW          13.3843    16.7801   103.4660 OW            1 RES     
    1741 HW1         12.5533    16.2381   103.5820 HW1           1 RES     
    1742 HW2         13.1463    17.7501   103.4130 HW2           1 RES     
    1743 OW           1.2783     5.8721   106.1930 OW            1 RES     
    1744 HW1          0.6603     5.1511   106.5050 HW1           1 RES     
    1745 HW2          0.8943     6.7651   106.4280 HW2           1 RES     
    1746 OW          25.8233    14.0371    92.5700 OW            1 RES     
    1747 HW1         25.4343    14.4661    91.7550 HW1           1 RES     
    1748 HW2         26.8203    14.0221    92.4950 HW2           1 RES     
    1749 OW           3.7543    13.4121   106.7320 OW            1 RES     
    1750 HW1          4.2903    14.1301   106.2890 HW1           1 RES     
    1751 HW2          4.2723    12.5561   106.7240 HW2           1 RES     
    1752 OW           8.9583     8.7491   108.7900 OW            1 RES     
    1753 HW1          9.6223     9.4681   108.5850 HW1           1 RES     
    1754 HW2          9.4193     7.8611   108.7940 HW2           1 RES     
    1755 OW          29.9323    12.1981    88.3320 OW            1 RES     
    1756 HW1         29.7753    13.1541    88.5750 HW1           1 RES     
    1757 HW2         30.9163    12.0201    88.2940 HW2           1 RES     
    1758 OW           3.0113    25.7491    92.6140 OW            1 RES     
    1759 HW1          4.0083    25.7831    92.6820 HW1           1 RES     
    1760 HW2          2.6533    25.0951    93.2800 HW2           1 RES     
    1761 OW           4.8513    18.9571    88.5280 OW            1 RES     
    1762 HW1          4.5643    18.0291    88.2930 HW1           1 RES     
    1763 HW2          4.7123    19.1111    89.5070 HW2           1 RES     
    1764 OW          22.3163    25.9211    99.6750 OW            1 RES     
    1765 HW1         22.2583    25.2031    98.9820 HW1           1 RES     
    1766 HW2         21.7933    25.6491   100.4830 HW2           1 RES     
    1767 OW           9.6273    16.9721    94.8640 OW            1 RES     
    1768 HW1          8.8533    17.4421    94.4440 HW1           1 RES     
    1769 HW2          9.4423    15.9901    94.9020 HW2           1 RES     
    1770 OW          12.2753    25.6961    99.7330 OW            1 RES     
    1771 HW1         11.8173    26.5281   100.0460 HW1           1 RES     
    1772 HW2         13.1503    25.9351    99.3120 HW2           1 RES     
    1773 OW          10.1073     3.2401   105.1220 OW            1 RES     
    1774 HW1          9.4733     2.5181   104.8480 HW1           1 RES     
    1775 HW2         11.0253     2.8561   105.2280 HW2           1 RES     
    1776 OW          29.4653     7.4481   101.1410 OW            1 RES     
    1777 HW1         28.9673     8.2801   100.8970 HW1           1 RES     
    1778 HW2         28.8483     6.6621   101.0840 HW2           1 RES     
    1779 OW           5.3183    25.1861   103.8300 OW            1 RES     
    1780 HW1          4.9973    24.7301   104.6600 HW1           1 RES     
    1781 HW2          5.7393    24.5141   103.2210 HW2           1 RES     
    1782 OW          11.1323    17.3381   106.6150 OW            1 RES     
    1783 HW1         10.4723    16.9481   107.2560 HW1           1 RES     
    1784 HW2         11.8633    16.6771   106.4450 HW2           1 RES     
    1785 OW          15.8463    20.0551    94.9940 OW            1 RES     
    1786 HW1         16.3113    20.0071    94.1110 HW1           1 RES     
    1787 HW2         15.7513    21.0121    95.2700 HW2           1 RES     
    1788 OW          11.7253     0.0021    98.3730 OW            1 RES     
    1789 HW1         12.2833     0.1541    99.1880 HW1           1 RES     
    1790 HW2         11.3903     0.8791    98.0290 HW2           1 RES     
    1791 OW          26.7073     9.3421   101.7880 OW            1 RES     
    1792 HW1         26.2283     8.6721   101.2220 HW1           1 RES     
    1793 HW2         26.0393     9.9051   102.2750 HW2           1 RES     
    1794 OW          32.8743    22.9481    93.5580 OW            1 RES     
    1795 HW1         32.7603    22.3231    92.7860 HW1           1 RES     
    1796 HW2         33.1143    23.8581    93.2180 HW2           1 RES     
    1797 OW          24.9203    19.6051   104.3320 OW            1 RES     
    1798 HW1         25.0473    19.3521   103.3740 HW1           1 RES     
    1799 HW2         25.0203    20.5961   104.4320 HW2           1 RES     
    1800 OW          31.7363     4.7581    95.5280 OW            1 RES     
    1801 HW1         30.8753     5.0031    95.9720 HW1           1 RES     
    1802 HW2         32.1353     5.5711    95.1020 HW2           1 RES     
    1803 OW          27.4823    22.8111   108.0130 OW            1 RES     
    1804 HW1         26.7893    23.5281   108.0670 HW1           1 RES     
    1805 HW2         27.0393    21.9151   108.0540 HW2           1 RES     
    1806 OW          20.7343     1.2001   109.5380 OW            1 RES     
    1807 HW1         19.9193     0.8191   109.9740 HW1           1 RES     
    1808 HW2         21.5263     0.6281   109.7530 HW2           1 RES     
    1809 OW          25.1353    19.5451    95.7860 OW            1 RES     
    1810 HW1         25.7543    19.5841    95.0030 HW1           1 RES     
    1811 HW2         24.8413    18.6001    95.9330 HW2           1 RES     
    1812 OW          22.1253     6.7901   107.6900 OW            1 RES     
    1813 HW1         21.4223     7.0281   107.0210 HW1           1 RES     
    1814 HW2         23.0023     7.1781   107.4050 HW2           1 RES     
    1815 OW          15.9173     2.8631   109.7710 OW            1 RES     
    1816 HW1         15.2393     2.1421   109.9070 HW1           1 RES     
    1817 HW2         15.6403     3.4421   109.0030 HW2           1 RES     
    1818 OW          19.7393    13.8531    89.9910 OW            1 RES     
    1819 HW1         18.9283    13.2811    90.1050 HW1           1 RES     
    1820 HW2         20.5613    13.2971    90.1170 HW2           1 RES     
    1821 OW          22.4123    18.9511   107.0810 OW            1 RES     
    1822 HW1         22.7843    19.8791   107.0710 HW1           1 RES     
    1823 HW2         23.1623    18.2901   107.1040 HW2           1 RES     
    1824 OW           0.5723    11.7491   104.5120 OW            1 RES     
    1825 HW1          0.0003    12.1991   103.8270 HW1           1 RES     
    1826 HW2          0.0043    11.4531   105.2800 HW2           1 RES     
    1827 OW          28.2423    18.6651   109.9730 OW            1 RES     
    1828 HW1         28.3163    17.7561   109.5630 HW1           1 RES     
    1829 HW2         27.2863    18.9601   109.9620 HW2           1 RES     
    1830 OW          32.8113     3.6351    89.4480 OW            1 RES     
    1831 HW1         31.9843     4.1321    89.7080 HW1           1 RES     
    1832 HW2         33.3793     4.2151    88.8630 HW2           1 RES     
    1833 OW           6.8263    14.9431    93.0820 OW            1 RES     
    1834 HW1          7.0953    15.8981    92.9600 HW1           1 RES     
    1835 HW2          5.8743    14.8261    92.7980 HW2           1 RES     
    1836 OW          31.7613    12.2681    95.8840 OW            1 RES     
    1837 HW1         32.1493    11.3601    95.7310 HW1           1 RES     
    1838 HW2         32.4923    12.9061    96.1300 HW2           1 RES     
    1839 OW           2.1563     6.0731    90.3160 OW            1 RES     
    1840 HW1          2.8203     6.8191    90.3610 HW1           1 RES     
    1841 HW2          1.2303     6.4501    90.2950 HW2           1 RES     
    1842 OW          21.8543     2.2521    89.3010 OW            1 RES     
    1843 HW1         20.8553     2.2491    89.3150 HW1           1 RES     
    1844 HW2         22.1863     3.1941    89.3670 HW2           1 RES     
    1845 OW          15.4423     0.1921    95.7580 OW            1 RES     
    1846 HW1         15.2953     0.0081    94.7870 HW1           1 RES     
    1847 HW2         14.5973     0.0161    96.2630 HW2           1 RES     
    1848 OW          20.8403     4.8961    93.6460 OW            1 RES     
    1849 HW1         21.5553     4.2001    93.6950 HW1           1 RES     
    1850 HW2         20.8013     5.3971    94.5110 HW2           1 RES     
    1851 OW           1.1003     2.0171   104.5300 OW            1 RES     
    1852 HW1          2.0323     1.7621   104.2740 HW1           1 RES     
    1853 HW2          1.1283     2.6481   105.3060 HW2           1 RES     
    1854 OW           0.0003     0.6141   101.3100 OW            1 RES     
    1855 HW1          0.8333     0.6841   101.8580 HW1           1 RES     
    1856 HW2          0.0143     1.3091   100.5910 HW2           1 RES     
    1857 OW          20.2543    15.5271    98.0490 OW            1 RES     
    1858 HW1         20.3703    16.0741    98.8770 HW1           1 RES     
    1859 HW2         19.3023    15.2271    97.9780 HW2           1 RES     
    1860 OW           6.5443     5.8761   108.8720 OW            1 RES     
    1861 HW1          6.0583     5.0841   108.5040 HW1           1 RES     
    1862 HW2          5.9283     6.6631   108.9000 HW2           1 RES     
    1863 OW           7.2583    15.0731   102.5410 OW            1 RES     
    1864 HW1          6.4043    15.5811   102.6490 HW1           1 RES     
    1865 HW2          7.4823    15.0011   101.5690 HW2           1 RES     
    1866 OW          24.1973     7.5931    95.1740 OW            1 RES     
    1867 HW1         23.2533     7.2821    95.0650 HW1           1 RES     
    1868 HW2         24.7993     6.8021    95.2850 HW2           1 RES     
    1869 OW          15.7353    10.2091    93.4520 OW            1 RES     
    1870 HW1         14.7713    10.4551    93.3550 HW1           1 RES     
    1871 HW2         15.8193     9.2161    93.5420 HW2           1 RES     
    1872 OW          10.3153    24.1571    93.7800 OW            1 RES     
    1873 HW1         11.0363    23.4761    93.6620 HW1           1 RES     
    1874 HW2          9.5033    23.7211    94.1670 HW2           1 RES     
    1875 OW          16.5593     9.5551   104.1790 OW            1 RES     
    1876 HW1         17.5023     9.2591   104.0320 HW1           1 RES     
    1877 HW2         15.9873     8.7591   104.3800 HW2           1 RES     
    1878 OW          27.7133     0.3831    94.2320 OW            1 RES     
    1879 HW1         28.1423     1.1201    94.7530 HW1           1 RES     
    1880 HW2         28.3713     0.0091    93.5780 HW2           1 RES     
    1881 OW          21.8973     1.8031    94.4570 OW            1 RES     
    1882 HW1         22.1593     1.1881    93.7140 HW1           1 RES     
    1883 HW2         21.6953     1.2671    95.2780 HW2           1 RES     
    1884 OW          32.7653     5.0771    91.7250 OW            1 RES     
    1885 HW1         32.5233     5.8121    91.0930 HW1           1 RES     
    1886 HW2         33.3763     5.4331    92.4330 HW2           1 RES     
    1887 OW          11.0973    15.1831   108.5480 OW            1 RES     
    1888 HW1         10.9193    14.2321   108.7990 HW1           1 RES     
    1889 HW2         11.5283    15.6561   109.3160 HW2           1 RES     
    1890 OW          20.1193    11.7701   105.4900 OW            1 RES     
    1891 HW1         20.0893    10.8621   105.9050 HW1           1 RES     
    1892 HW2         21.0633    12.0981   105.4710 HW2           1 RES     
    1893 OW          27.7263     9.2031    97.1590 OW            1 RES     
    1894 HW1         27.1753    10.0361    97.1960 HW1           1 RES     
    1895 HW2         28.5223     9.3021    97.7570 HW2           1 RES     
    1896 OW           9.5103     7.1271    89.9770 OW            1 RES     
    1897 HW1         10.3273     7.6401    90.2340 HW1           1 RES     
    1898 HW2          8.7293     7.7491    89.9180 HW2           1 RES     
    1899 OW          23.7773    18.7731    99.8510 OW            1 RES     
    1900 HW1         23.8233    18.0301    99.1840 HW1           1 RES     
    1901 HW2         23.0203    18.6081   100.4840 HW2           1 RES     
    1902 OW          22.0383    10.6471    93.9350 OW            1 RES     
    1903 HW1         22.5333    10.3171    94.7370 HW1           1 RES     
    1904 HW2         22.6533    11.1921    93.3640 HW2           1 RES     
    1905 OW          10.0803    22.4811    98.8810 OW            1 RES     
    1906 HW1          9.8613    21.9431    98.0670 HW1           1 RES     
    1907 HW2         10.2533    21.8661    99.6510 HW2           1 RES     
    1908 OW          14.6883    14.6101    93.5240 OW            1 RES     
    1909 HW1         15.6073    14.4111    93.8630 HW1           1 RES     
    1910 HW2         14.7363    14.8581    92.5560 HW2           1 RES     
    1911 OW           2.5163    16.1781    95.1080 OW            1 RES     
    1912 HW1          1.5403    15.9771    95.0270 HW1           1 RES     
    1913 HW2          2.9963    15.8281    94.3040 HW2           1 RES     
    1914 OW          22.0713     7.9001   101.5920 OW            1 RES     
    1915 HW1         21.6813     6.9841   101.5030 HW1           1 RES     
    1916 HW2         22.4243     8.0251   102.5190 HW2           1 RES     
    1917 OW          18.6603    20.1311   102.2500 OW            1 RES     
    1918 HW1         19.0483    19.2671   102.5690 HW1           1 RES     
    1919 HW2         18.9833    20.8771   102.8320 HW2           1 RES     
    1920 OW           7.2913    10.1441   109.1480 OW            1 RES     
    1921 HW1          6.4933    10.0861   109.7470 HW1           1 RES     
    1922 HW2          7.5353    11.1041   109.0100 HW2           1 RES     
    1923 OW          17.9783     1.0511   107.1880 OW            1 RES     
    1924 HW1         18.1703     0.9881   108.1670 HW1           1 RES     
    1925 HW2         18.8383     1.1051   106.6810 HW2           1 RES     
    1926 OW          19.0843     8.8181   101.7670 OW            1 RES     
    1927 HW1         19.9253     8.4071   101.4160 HW1           1 RES     
    1928 HW2         18.7063     8.2401   102.4900 HW2           1 RES     
    1929 OW           4.5943     0.1061   103.6790 OW            1 RES     
    1930 HW1          4.5063     0.1171   104.6740 HW1           1 RES     
    1931 HW2          3.6903     0.0011   103.2640 HW2           1 RES     
    1932 OW          32.4633    21.8711   105.2920 OW            1 RES     
    1933 HW1         31.9973    21.2281   104.6860 HW1           1 RES     
    1934 HW2         33.3793    21.5301   105.5000 HW2           1 RES     
    1935 OW          32.1243     5.4821   102.6520 OW            1 RES     
    1936 HW1         32.2613     4.9541   101.8140 HW1           1 RES     
    1937 HW2         31.7733     4.8821   103.3710 HW2           1 RES     
    1938 OW          20.3383    19.3791   107.7610 OW            1 RES     
    1939 HW1         19.5933    19.5561   107.1180 HW1           1 RES     
    1940 HW2         20.1513    19.8471   108.6250 HW2           1 RES     
    1941 OW          32.1133    14.5251   101.1740 OW            1 RES     
    1942 HW1         31.8193    13.5761   101.0690 HW1           1 RES     
    1943 HW2         31.3143    15.1091   101.3170 HW2           1 RES     
    1944 OW           9.2133     5.2191    88.6410 OW            1 RES     
    1945 HW1         10.1563     5.3991    88.3650 HW1           1 RES     
    1946 HW2          9.0493     4.2331    88.6460 HW2           1 RES     
    1947 OW           3.9273     3.6941   103.2260 OW            1 RES     
    1948 HW1          3.2673     3.7581   103.9740 HW1           1 RES     
    1949 HW2          3.4843     3.9511   102.3670 HW2           1 RES     
    1950 OW          14.8223     5.6721   105.4880 OW            1 RES     
    1951 HW1         15.4423     5.0941   106.0180 HW1           1 RES     
    1952 HW2         13.9083     5.2661   105.4840 HW2           1 RES     
    1953 OW          15.2003     4.8231    88.6750 OW            1 RES     
    1954 HW1         15.3663     4.6411    89.6440 HW1           1 RES     
    1955 HW2         15.1443     5.8101    88.5250 HW2           1 RES     
    1956 OW          11.0493     0.5801   104.8300 OW            1 RES     
    1957 HW1         10.3373     0.0041   105.2290 HW1           1 RES     
    1958 HW2         11.7763     0.0031   104.4560 HW2           1 RES     
    1959 OW          32.5963    10.4441    90.5130 OW            1 RES     
    1960 HW1         33.3823     9.9351    90.1640 HW1           1 RES     
    1961 HW2         32.1433    10.9181    89.7570 HW2           1 RES     
    1962 OW           4.9733     4.4041    91.0700 OW            1 RES     
    1963 HW1          5.9343     4.5091    91.3230 HW1           1 RES     
    1964 HW2          4.8283     4.7731    90.1510 HW2           1 RES     
    1965 OW          23.4903    10.7871    98.5630 OW            1 RES     
    1966 HW1         22.5863    11.1551    98.7770 HW1           1 RES     
    1967 HW2         24.1513    11.5361    98.5090 HW2           1 RES     
    1968 OW          23.6893    24.0231    96.4900 OW            1 RES     
    1969 HW1         24.5193    24.5671    96.3760 HW1           1 RES     
    1970 HW2         23.8753    23.0741    96.2340 HW2           1 RES     
    1971 OW          22.5503     4.7231   101.6340 OW            1 RES     
    1972 HW1         23.1253     5.3621   101.1240 HW1           1 RES     
    1973 HW2         22.9363     4.5811   102.5460 HW2           1 RES     
    1974 OW           2.3583    12.8631   103.6810 OW            1 RES     
    1975 HW1          2.0103    12.2931   102.9380 HW1           1 RES     
    1976 HW2          3.2123    13.3001   103.3960 HW2           1 RES     
    1977 OW          19.3033    18.0351   105.1980 OW            1 RES     
    1978 HW1         18.7113    17.2461   105.3610 HW1           1 RES     
    1979 HW2         20.1773    17.7251   104.8230 HW2           1 RES     
    1980 OW          11.8433    24.2691   104.3550 OW            1 RES     
    1981 HW1         10.9823    23.8271   104.6040 HW1           1 RES     
    1982 HW2         12.0373    24.1021   103.3890 HW2           1 RES     
    1983 OW          30.8623    25.0751    88.9930 OW            1 RES     
    1984 HW1         30.7953    24.2001    88.5140 HW1           1 RES     
    1985 HW2         31.5793    25.6311    88.5720 HW2           1 RES     
    1986 OW          29.5143    20.9831    93.4670 OW            1 RES     
    1987 HW1         30.5063    20.8891    93.3920 HW1           1 RES     
    1988 HW2         29.1043    20.0831    93.6180 HW2           1 RES     
    1989 OW          13.8853    15.8271    89.1150 OW            1 RES     
    1990 HW1         13.7113    16.8111    89.1270 HW1           1 RES     
    1991 HW2         14.8193    15.6491    89.4250 HW2           1 RES     
    1992 OW          24.0033    12.2731    88.4690 OW            1 RES     
    1993 HW1         23.7293    11.3121    88.4460 HW1           1 RES     
    1994 HW2         24.9863    12.3451    88.3000 HW2           1 RES     
    1995 OW           1.0713    23.8661   103.1090 OW            1 RES     
    1996 HW1          1.6673    24.3471   103.7500 HW1           1 RES     
    1997 HW2          0.8313    22.9701   103.4830 HW2           1 RES     
    1998 OW          12.2653    15.3251    96.8260 OW            1 RES     
    1999 HW1         12.9783    14.7781    96.3890 HW1           1 RES     
    2000 HW2         11.4473    14.7641    96.9580 HW2           1 RES     
    2001 OW          24.1893    11.8311   103.4370 OW            1 RES     
    2002 HW1         24.2663    12.5651   102.7630 HW1           1 RES     
    2003 HW2         23.2243    11.6651   103.6410 HW2           1 RES     
    2004 OW          24.7023    12.8271   106.5110 OW            1 RES     
    2005 HW1         24.1283    13.6441   106.5340 HW1           1 RES     
    2006 HW2         25.6443    13.0851   106.2930 HW2           1 RES     
    2007 OW           4.1913     4.2981    94.4210 OW            1 RES     
    2008 HW1          4.6543     3.4421    94.1930 HW1           1 RES     
    2009 HW2          3.4273     4.4431    93.7920 HW2           1 RES     
    2010 OW          10.5343    11.7891    97.2800 OW            1 RES     
    2011 HW1          9.5913    11.7981    97.6110 HW1           1 RES     
    2012 HW2         10.6623    11.0161    96.6570 HW2           1 RES     
    2013 OW          11.8783    20.8121   101.3490 OW            1 RES     
    2014 HW1         11.7143    19.9991   100.7910 HW1           1 RES     
    2015 HW2         12.2323    21.5481   100.7710 HW2           1 RES     
    2016 OW          28.0273     2.0561   109.0300 OW            1 RES     
    2017 HW1         28.9503     1.8501   109.3540 HW1           1 RES     
    2018 HW2         27.4973     1.2101   108.9710 HW2           1 RES     
    2019 OW          25.0013     3.2031    91.4980 OW            1 RES     
    2020 HW1         24.5233     3.8781    90.9370 HW1           1 RES     
    2021 HW2         24.5563     2.3131    91.4020 HW2           1 RES     
    2022 OW          31.1783    11.5661   109.5020 OW            1 RES     
    2023 HW1         30.3643    12.1371   109.5990 HW1           1 RES     
    2024 HW2         31.9483    12.0001   109.9710 HW2           1 RES     
    2025 OW          20.2993    14.5641   104.4490 OW            1 RES     
    2026 HW1         20.6093    15.3521   104.9800 HW1           1 RES     
    2027 HW2         19.9193    14.8771   103.5780 HW2           1 RES     
    2028 OW           9.7433    15.0591   105.3800 OW            1 RES     
    2029 HW1          9.5353    14.9031   104.4150 HW1           1 RES     
    2030 HW2          9.1073    15.7351   105.7540 HW2           1 RES     
    2031 OW           9.5013     6.9601   101.5330 OW            1 RES     
    2032 HW1         10.0083     6.4131   102.1990 HW1           1 RES     
    2033 HW2         10.1453     7.4571   100.9500 HW2           1 RES     
    2034 OW          16.6783    23.9211    94.1610 OW            1 RES     
    2035 HW1         16.2503    23.0181    94.1570 HW1           1 RES     
    2036 HW2         15.9703    24.6271    94.1400 HW2           1 RES     
    2037 OW          16.8833     5.6121   101.9610 OW            1 RES     
    2038 HW1         16.0983     5.4401   101.3660 HW1           1 RES     
    2039 HW2         17.3893     6.4061   101.6240 HW2           1 RES     
    2040 OW          10.8643     0.3241    92.7960 OW            1 RES     
    2041 HW1         11.8103     0.0021    92.7670 HW1           1 RES     
    2042 HW2         10.3773     0.0031    91.9840 HW2           1 RES     
    2043 OW          23.6383    15.6181    94.8400 OW            1 RES     
    2044 HW1         22.9573    16.3471    94.9040 HW1           1 RES     
    2045 HW2         23.8473    15.2761    95.7570 HW2           1 RES     
    2046 OW          33.0303     1.1881   100.1750 OW            1 RES     
    2047 HW1         33.3813     0.3381   100.5650 HW1           1 RES     
    2048 HW2         33.3513     1.9631   100.7200 HW2           1 RES     
    2049 OW          24.9213    25.3181   103.7590 OW            1 RES     
    2050 HW1         24.0173    25.7441   103.7340 HW1           1 RES     
    2051 HW2         24.8303    24.3551   104.0140 HW2           1 RES     
    2052 OW          30.4583    11.3021   105.5490 OW            1 RES     
    2053 HW1         31.1573    10.5871   105.5480 HW1           1 RES     
    2054 HW2         30.8563    12.1581   105.2190 HW2           1 RES     
    2055 OW          27.6533    24.0591   101.3550 OW            1 RES     
    2056 HW1         26.9433    24.5331   100.8350 HW1           1 RES     
    2057 HW2         28.4433    23.8901   100.7640 HW2           1 RES     
    2058 OW          18.4903    12.4831    93.3170 OW            1 RES     
    2059 HW1         17.6773    12.2411    92.7880 HW1           1 RES     
    2060 HW2         19.3093    12.2901    92.7770 HW2           1 RES     
    2061 OW          17.6273     5.7481    95.1880 OW            1 RES     
    2062 HW1         18.4323     5.2461    94.8740 HW1           1 RES     
    2063 HW2         17.8953     6.3971    95.9000 HW2           1 RES     
    2064 OW          28.8433    23.1091    95.4570 OW            1 RES     
    2065 HW1         28.5643    22.9201    96.3980 HW1           1 RES     
    2066 HW2         28.5723    24.0391    95.2080 HW2           1 RES     
    2067 OW          32.4693    23.7181   100.8150 OW            1 RES     
    2068 HW1         33.0783    23.8851   100.0400 HW1           1 RES     
    2069 HW2         31.9983    22.8451   100.6880 HW2           1 RES     
    2070 OW          12.9593    12.2351    94.7190 OW            1 RES     
    2071 HW1         12.2223    12.8711    94.4920 HW1           1 RES     
    2072 HW2         13.7333    12.7411    95.0990 HW2           1 RES     
    2073 OW           4.9583    20.9541    93.7830 OW            1 RES     
    2074 HW1          5.1123    20.1671    94.3800 HW1           1 RES     
    2075 HW2          4.3603    21.6111    94.2440 HW2           1 RES     
    2076 OW           1.1843    23.1201    92.5860 OW            1 RES     
    2077 HW1          1.3423    23.7791    91.8510 HW1           1 RES     
    2078 HW2          0.2273    22.8321    92.5770 HW2           1 RES     
    2079 OW          31.6563    17.0221   105.9000 OW            1 RES     
    2080 HW1         30.8393    16.4471   105.8890 HW1           1 RES     
    2081 HW2         31.3863    17.9841   105.9360 HW2           1 RES     
    2082 OW          25.3863     0.5541    96.5480 OW            1 RES     
    2083 HW1         25.8933     1.4081    96.6560 HW1           1 RES     
    2084 HW2         24.4053     0.7481    96.5270 HW2           1 RES     
    2085 OW          15.1703    15.5011   103.0140 OW            1 RES     
    2086 HW1         16.1673    15.4541   102.9610 HW1           1 RES     
    2087 HW2         14.7993    14.5831   103.1590 HW2           1 RES     
    2088 OW          23.3013    16.4041   102.0880 OW            1 RES     
    2089 HW1         23.4683    15.4881   102.4510 HW1           1 RES     
    2090 HW2         22.5603    16.8371   102.6020 HW2           1 RES     
    2091 OW           3.1393    10.3151    88.8990 OW            1 RES     
    2092 HW1          2.6553    10.7271    89.6700 HW1           1 RES     
    2093 HW2          3.8003    10.9691    88.5310 HW2           1 RES     
    2094 OW          25.2873     2.8291    88.2970 OW            1 RES     
    2095 HW1         25.6993     2.5481    89.1630 HW1           1 RES     
    2096 HW2         25.0183     3.7911    88.3530 HW2           1 RES     
    2097 OW          17.7453    25.6151    90.9150 OW            1 RES     
    2098 HW1         17.8003    26.3721    91.5650 HW1           1 RES     
    2099 HW2         18.2373    24.8251    91.2790 HW2           1 RES     
    2100 OW          28.1523     1.7231   104.8960 OW            1 RES     
    2101 HW1         28.1393     2.3981   105.6330 HW1           1 RES     
    2102 HW2         27.5813     0.9421   105.1480 HW2           1 RES     
    2103 OW           9.1323     2.2521    97.8850 OW            1 RES     
    2104 HW1         10.0593     2.6241    97.8700 HW1           1 RES     
    2105 HW2          8.4723     3.0031    97.9150 HW2           1 RES     
    2106 OW          25.4753    15.5161   106.6130 OW            1 RES     
    2107 HW1         26.3713    15.9371   106.4710 HW1           1 RES     
    2108 HW2         24.8173    16.2171   106.8870 HW2           1 RES     
    2109 OW          22.1373    20.1411   103.4020 OW            1 RES     
    2110 HW1         22.5083    20.9101   102.8820 HW1           1 RES     
    2111 HW2         21.1453    20.2421   103.4850 HW2           1 RES     
    2112 OW          24.6373     3.6721   108.6870 OW            1 RES     
    2113 HW1         24.5513     4.4561   109.3010 HW1           1 RES     
    2114 HW2         24.7933     3.9951   107.7530 HW2           1 RES     
    2115 OW          16.1043     5.8001    97.8160 OW            1 RES     
    2116 HW1         15.1693     5.9901    98.1150 HW1           1 RES     
    2117 HW2         16.4493     4.9921    98.2940 HW2           1 RES     
    2118 OW           1.4253     2.3641    93.6120 OW            1 RES     
    2119 HW1          1.3673     1.4911    94.0940 HW1           1 RES     
    2120 HW2          1.9693     2.2501    92.7800 HW2           1 RES     
    2121 OW          32.0043     9.3561    93.5140 OW            1 RES     
    2122 HW1         32.6553     8.6211    93.3240 HW1           1 RES     
    2123 HW2         31.4653     9.5431    92.6930 HW2           1 RES     
    2124 OW          31.9163    17.3421    92.5620 OW            1 RES     
    2125 HW1         30.9253    17.4661    92.5140 HW1           1 RES     
    2126 HW2         32.3493    18.2101    92.8050 HW2           1 RES     
    2127 OW          22.5053     0.0261   102.9380 OW            1 RES     
    2128 HW1         21.5063     0.0011   102.9210 HW1           1 RES     
    2129 HW2         22.8233     0.9221   102.6290 HW2           1 RES     
    2130 OW           9.7683     8.3971   104.2720 OW            1 RES     
    2131 HW1          9.2113     9.2181   104.1440 HW1           1 RES     
    2132 HW2          9.1713     7.5971   104.3440 HW2           1 RES     
    2133 OW           6.4573     0.4421   101.7340 OW            1 RES     
    2134 HW1          6.0203     1.3381   101.6670 HW1           1 RES     
    2135 HW2          7.4513     0.5511   101.7020 HW2           1 RES     
    2136 OW          20.6273    26.0001    90.6910 OW            1 RES     
    2137 HW1         21.2363    26.5241    91.2860 HW1           1 RES     
    2138 HW2         19.7873    26.5201    90.5330 HW2           1 RES     
    2139 OW          32.8953     2.5431    95.3580 OW            1 RES     
    2140 HW1         33.3823     3.3661    95.0690 HW1           1 RES     
    2141 HW2         33.3393     2.1611    96.1690 HW2           1 RES     
    2142 OW          17.9103     2.6341    93.1600 OW            1 RES     
    2143 HW1         17.2363     2.8921    92.4670 HW1           1 RES     
    2144 HW2         18.5513     3.3891    93.3000 HW2           1 RES     
    2145 OW           4.1123    13.8711   101.4000 OW            1 RES     
    2146 HW1          5.0863    13.9941   101.5860 HW1           1 RES     
    2147 HW2          3.7173    14.7401   101.1020 HW2           1 RES     
    2148 OW          22.5803    16.9431    90.7630 OW            1 RES     
    2149 HW1         22.8673    17.8681    90.5160 HW1           1 RES     
    2150 HW2         23.3173    16.2991    90.5590 HW2           1 RES     
    2151 OW          17.6923     6.0321    90.6230 OW            1 RES     
    2152 HW1         18.4483     6.5991    90.9460 HW1           1 RES     
    2153 HW2         17.7453     5.9411    89.6280 HW2           1 RES     
    2154 OW          28.6113     6.6581    95.8310 OW            1 RES     
    2155 HW1         28.1493     5.8341    96.1580 HW1           1 RES     
    2156 HW2         29.1813     7.0331    96.5630 HW2           1 RES     
    2157 OW          20.3233    16.7161   101.0650 OW            1 RES     
    2158 HW1         19.3773    16.6131   101.3720 HW1           1 RES     
    2159 HW2         20.7193    17.5371   101.4760 HW2           1 RES     
    2160 OW          16.0153    11.8941    90.3420 OW            1 RES     
    2161 HW1         16.9973    11.7351    90.4330 HW1           1 RES     
    2162 HW2         15.8343    12.8781    90.3390 HW2           1 RES     
    2163 OW          17.9553    15.4611   108.8450 OW            1 RES     
    2164 HW1         18.7263    15.9571   109.2430 HW1           1 RES     
    2165 HW2         17.3913    16.0921   108.3110 HW2           1 RES     
    2166 OW          31.3013     4.7261   106.9120 OW            1 RES     
    2167 HW1         31.5623     4.0251   107.5750 HW1           1 RES     
    2168 HW2         30.5893     5.3081   107.3050 HW2           1 RES     
    2169 OW           3.5013    24.6701   101.5900 OW            1 RES     
    2170 HW1          2.5903    25.0721   101.5080 HW1           1 RES     
    2171 HW2          3.8303    24.4011   100.6850 HW2           1 RES     
    2172 OW           4.6393    23.2921    91.8340 OW            1 RES     
    2173 HW1          3.9523    23.9261    91.4830 HW1           1 RES     
    2174 HW2          4.8903    23.5531    92.7660 HW2           1 RES     
    2175 OW          22.6573    23.4861    89.7190 OW            1 RES     
    2176 HW1         22.6173    23.0451    90.6150 HW1           1 RES     
    2177 HW2         22.0093    24.2471    89.6920 HW2           1 RES     
    2178 OW          12.4133    15.1021    90.8500 OW            1 RES     
    2179 HW1         11.6113    14.8241    90.3220 HW1           1 RES     
    2180 HW2         13.1313    14.4141    90.7530 HW2           1 RES     
    2181 OW           7.6403    25.5561    93.1250 OW            1 RES     
    2182 HW1          8.4003    26.1321    92.8270 HW1           1 RES     
    2183 HW2          7.0283    25.3871    92.3520 HW2           1 RES     
    2184 OW           2.7243     7.0801   109.1150 OW            1 RES     
    2185 HW1          3.6593     7.3541   109.3330 HW1           1 RES     
    2186 HW2          2.0853     7.7691   109.4580 HW2           1 RES     
    2187 OW          26.1533     2.7161    99.6950 OW            1 RES     
    2188 HW1         25.6273     2.2521    98.9830 HW1           1 RES     
    2189 HW2         25.5303     3.0741   100.3910 HW2           1 RES     
    2190 OW           1.6253    10.8581    96.6690 OW            1 RES     
    2191 HW1          1.6333    11.3641    97.5300 HW1           1 RES     
    2192 HW2          1.5683    11.5001    95.9040 HW2           1 RES     
    2193 OW          24.8083    12.9101    95.4990 OW            1 RES     
    2194 HW1         23.9183    13.1641    95.1230 HW1           1 RES     
    2195 HW2         25.4893    13.5941    95.2380 HW2           1 RES     
    2196 OW          28.7603    17.0361   104.8360 OW            1 RES     
    2197 HW1         28.5173    17.5361   105.6670 HW1           1 RES     
    2198 HW2         29.0333    17.6841   104.1250 HW2           1 RES     
    2199 OW          21.2363    21.9211    98.2450 OW            1 RES     
    2200 HW1         20.4553    22.5401    98.3200 HW1           1 RES     
    2201 HW2         22.0743    22.4551    98.1270 HW2           1 RES     
    2202 OW          14.3093    18.8081   100.7430 OW            1 RES     
    2203 HW1         14.1903    18.1441   101.4810 HW1           1 RES     
    2204 HW2         15.1123    18.5631   100.1990 HW2           1 RES     
    2205 OW          17.6143    12.1331    96.7810 OW            1 RES     
    2206 HW1         17.0593    12.5821    96.0820 HW1           1 RES     
    2207 HW2         17.0223    11.6081    97.3920 HW2           1 RES     
    2208 OW           7.5773    21.4941   108.6400 OW            1 RES     
    2209 HW1          8.0883    20.6401   108.7280 HW1           1 RES     
    2210 HW2          8.2163    22.2541   108.5180 HW2           1 RES     
    2211 OW          28.9193     4.5791   103.8930 OW            1 RES     
    2212 HW1         28.2123     5.2771   103.7860 HW1           1 RES     
    2213 HW2         29.2753     4.6051   104.8280 HW2           1 RES     
    2214 OW          27.1443    22.3241   104.1010 OW            1 RES     
    2215 HW1         27.1083    21.3421   104.2800 HW1           1 RES     
    2216 HW2         26.4043    22.5781   103.4780 HW2           1 RES     
    2217 OW          19.9253    18.8301    88.6430 OW            1 RES     
    2218 HW1         20.7863    18.4211    88.3430 HW1           1 RES     
    2219 HW2         19.9213    19.8041    88.4160 HW2           1 RES     
    2220 OW          27.6063     5.8471    93.2810 OW            1 RES     
    2221 HW1         27.6753     6.8221    93.4890 HW1           1 RES     
    2222 HW2         28.5233     5.4581    93.1930 HW2           1 RES     
    2223 OW          16.9173    22.2891    99.5760 OW            1 RES     
    2224 HW1         16.5103    23.1721    99.3460 HW1           1 RES     
    2225 HW2         17.7773    22.4351   100.0660 HW2           1 RES     
    2226 OW           6.0343    12.0401    97.9400 OW            1 RES     
    2227 HW1          5.2033    11.9791    98.4930 HW1           1 RES     
    2228 HW2          6.6653    12.6951    98.3560 HW2           1 RES     
    2229 OW          22.0913     9.8141    97.0800 OW            1 RES     
    2230 HW1         22.4153     8.8721    97.0010 HW1           1 RES     
    2231 HW2         21.0913     9.8231    97.0890 HW2           1 RES     
    2232 OW          27.9013     2.6141    92.7810 OW            1 RES     
    2233 HW1         27.7183     2.4581    91.8110 HW1           1 RES     
    2234 HW2         27.1343     3.1071    93.1910 HW2           1 RES     
    2235 OW           1.9513    22.5301    96.0520 OW            1 RES     
    2236 HW1          2.3343    22.0221    95.2810 HW1           1 RES     
    2237 HW2          2.6603    22.6701    96.7440 HW2           1 RES     
    2238 OW          24.3743     9.7771    93.3440 OW            1 RES     
    2239 HW1         24.7733    10.6621    93.1070 HW1           1 RES     
    2240 HW2         25.0693     9.2031    93.7780 HW2           1 RES     
    2241 OW          27.3783    10.0711    94.2220 OW            1 RES     
    2242 HW1         27.6443     9.1081    94.1960 HW1           1 RES     
    2243 HW2         26.8063    10.2381    95.0260 HW2           1 RES     
    2244 OW           2.6913     4.9581    99.9740 OW            1 RES     
    2245 HW1          2.9993     5.5551   100.7140 HW1           1 RES     
    2246 HW2          3.0303     5.3081    99.1000 HW2           1 RES     
    2247 OW           3.2763     8.3871    98.1840 OW            1 RES     
    2248 HW1          3.6473     9.3151    98.1690 HW1           1 RES     
    2249 HW2          4.0193     7.7281    98.0640 HW2           1 RES     
    2250 OW          15.1293     0.9431   107.7390 OW            1 RES     
    2251 HW1         15.7943     1.2981   107.0840 HW1           1 RES     
    2252 HW2         14.8843     0.0051   107.4920 HW2           1 RES     
    2253 OW          17.4603    22.2961   106.5190 OW            1 RES     
    2254 HW1         17.7473    21.6231   105.8380 HW1           1 RES     
    2255 HW2         18.2543    22.8231   106.8230 HW2           1 RES     
    2256 OW          14.7753    25.0841   101.3470 OW            1 RES     
    2257 HW1         13.7883    25.1281   101.5010 HW1           1 RES     
    2258 HW2         15.0893    24.1411   101.4650 HW2           1 RES     
    2259 OW           9.3903    10.7011   102.0330 OW            1 RES     
    2260 HW1         10.1503    10.1081   102.2970 HW1           1 RES     
    2261 HW2          8.5283    10.2951   102.3380 HW2           1 RES     
    2262 OW          14.0143     1.2491    90.1470 OW            1 RES     
    2263 HW1         14.4593     2.1131    89.9120 HW1           1 RES     
    2264 HW2         14.5263     0.4891    89.7460 HW2           1 RES     
    2265 OW           0.7813    16.7081    97.2360 OW            1 RES     
    2266 HW1          0.5423    17.6251    97.5520 HW1           1 RES     
    2267 HW2          0.0013    16.0951    97.3650 HW2           1 RES     
    2268 OW          13.1213     9.9341   102.6280 OW            1 RES     
    2269 HW1         13.5163    10.8501   102.5630 HW1           1 RES     
    2270 HW2         13.7853     9.3131   103.0450 HW2           1 RES     
    2271 OW           8.1843     0.8181   109.4510 OW            1 RES     
    2272 HW1          8.6223     1.6761   109.1840 HW1           1 RES     
    2273 HW2          8.8853     0.1281   109.6330 HW2           1 RES     
    2274 OW           2.0713     3.0891    96.6000 OW            1 RES     
    2275 HW1          1.2323     2.5501    96.5390 HW1           1 RES     
    2276 HW2          1.8613     3.9921    96.9770 HW2           1 RES     
    2277 OW           9.4843     9.6341    95.0890 OW            1 RES     
    2278 HW1          8.8073     8.9801    94.7560 HW1           1 RES     
    2279 HW2         10.3013     9.5931    94.5130 HW2           1 RES     
    2280 OW           7.5523    19.0671    91.3540 OW            1 RES     
    2281 HW1          7.2913    18.1341    91.1090 HW1           1 RES     
    2282 HW2          8.2133    19.0431    92.1050 HW2           1 RES     
    2283 OW          29.8803    22.1781   103.2060 OW            1 RES     
    2284 HW1         29.1073    22.7781   103.0030 HW1           1 RES     
    2285 HW2         30.7353    22.6811   103.0780 HW2           1 RES     
    2286 OW           1.5613    15.8731   106.5900 OW            1 RES     
    2287 HW1          1.7183    15.1811   107.2930 HW1           1 RES     
    2288 HW2          2.1503    15.6891   105.8030 HW2           1 RES     
    2289 OW          26.1663     6.6381    88.4030 OW            1 RES     
    2290 HW1         26.3853     5.6631    88.4200 HW1           1 RES     
    2291 HW2         27.0083     7.1681    88.2990 HW2           1 RES     
    2292 OW          11.6993    11.5461   107.5070 OW            1 RES     
    2293 HW1         10.7653    11.7801   107.7720 HW1           1 RES     
    2294 HW2         11.7173    10.6201   107.1270 HW2           1 RES     
    2295 OW          13.3393     9.1871    95.7320 OW            1 RES     
    2296 HW1         13.1243     9.5141    94.8130 HW1           1 RES     
    2297 HW2         14.3253     9.0351    95.8100 HW2           1 RES     
    2298 OW          32.2843    24.3731   109.3890 OW            1 RES     
    2299 HW1         32.7403    23.8991   108.6370 HW1           1 RES     
    2300 HW2         31.5313    24.9241   109.0290 HW2           1 RES     
    2301 OW          15.3783     8.0961   100.2440 OW            1 RES     
    2302 HW1         15.3373     9.0941   100.2750 HW1           1 RES     
    2303 HW2         16.3343     7.8011   100.2640 HW2           1 RES     
    2304 OW          22.8943     7.2091    90.8180 OW            1 RES     
    2305 HW1         23.5313     6.5871    90.3630 HW1           1 RES     
    2306 HW2         22.1553     7.4491    90.1900 HW2           1 RES     
    2307 OW          29.3943    15.3481    89.9740 OW            1 RES     
    2308 HW1         28.6503    15.4351    89.3120 HW1           1 RES     
    2309 HW2         29.5343    16.2231    90.4370 HW2           1 RES     
    2310 OW           7.5373     3.8731    94.3500 OW            1 RES     
    2311 HW1          6.9923     4.6841    94.1410 HW1           1 RES     
    2312 HW2          8.4133     3.9261    93.8690 HW2           1 RES     
    2313 OW          12.4423     5.1421    96.2380 OW            1 RES     
    2314 HW1         12.9103     5.9931    96.4710 HW1           1 RES     
    2315 HW2         11.9973     5.2381    95.3480 HW2           1 RES     
    2316 OW           3.6763    21.2771   107.6550 OW            1 RES     
    2317 HW1          3.1713    22.1231   107.4840 HW1           1 RES     
    2318 HW2          3.4193    20.5921   106.9740 HW2           1 RES     
    2319 OW          25.9413    20.1151    92.2560 OW            1 RES     
    2320 HW1         26.8573    19.7171    92.2800 HW1           1 RES     
    2321 HW2         25.3263    19.5741    92.8300 HW2           1 RES     
    2322 OW          28.4793    11.1531    99.5200 OW            1 RES     
    2323 HW1         28.6353    11.8041   100.2630 HW1           1 RES     
    2324 HW2         27.6383    10.6421    99.6950 HW2           1 RES     
    2325 OW          10.7763     4.3521   102.3230 OW            1 RES     
    2326 HW1         11.6053     4.4261   102.8760 HW1           1 RES     
    2327 HW2         10.4563     3.4041   102.3260 HW2           1 RES     
    2328 OW           7.5043    21.4651   105.1890 OW            1 RES     
    2329 HW1          8.3463    21.2451   104.6980 HW1           1 RES     
    2330 HW2          7.7273    21.9491   106.0360 HW2           1 RES     
    2331 OW           8.0143    12.8131   101.4340 OW            1 RES     
    2332 HW1          7.3993    12.0821   101.7280 HW1           1 RES     
    2333 HW2          8.0503    12.8381   100.4350 HW2           1 RES     
    2334 OW           3.0373     0.4451   107.9910 OW            1 RES     
    2335 HW1          3.9513     0.3861   108.3910 HW1           1 RES     
    2336 HW2          2.9273     1.3321   107.5410 HW2           1 RES     
    2337 OW          16.5813    17.7421   104.0450 OW            1 RES     
    2338 HW1         15.6393    17.8441   103.7280 HW1           1 RES     
    2339 HW2         16.6723    18.1431   104.9570 HW2           1 RES     
    2340 OW          27.8723    12.1731   107.7730 OW            1 RES     
    2341 HW1         28.7843    11.8401   107.5360 HW1           1 RES     
    2342 HW2         27.6883    13.0231   107.2790 HW2           1 RES     
    2343 OW           7.7003    19.1811    99.1010 OW            1 RES     
    2344 HW1          6.7323    19.4291    99.0730 HW1           1 RES     
    2345 HW2          7.7903    18.1851    99.0920 HW2           1 RES     
    2346 OW           7.5303    21.9711    99.7970 OW            1 RES     
    2347 HW1          8.0493    21.1701   100.0950 HW1           1 RES     
    2348 HW2          7.4083    21.9401    98.8050 HW2           1 RES     
    2349 OW           0.0033     9.5881   102.2350 OW            1 RES     
    2350 HW1          0.6193     9.8821   102.9650 HW1           1 RES     
    2351 HW2          0.5083     9.5371   101.3730 HW2           1 RES     
    2352 OW           9.2363    12.3911   104.6000 OW            1 RES     
    2353 HW1          9.1173    11.4041   104.5020 HW1           1 RES     
    2354 HW2          8.3403    12.8331   104.6420 HW2           1 RES     
    2355 OW           4.9673    10.3191   106.3090 OW            1 RES     
    2356 HW1          5.6533     9.8411   106.8570 HW1           1 RES     
    2357 HW2          4.2283     9.6871   106.0740 HW2           1 RES     
    2358 OW           8.0653    25.9861   105.9480 OW            1 RES     
    2359 HW1          8.5553    25.5991   106.7280 HW1           1 RES     
    2360 HW2          8.6173    25.8831   105.1210 HW2           1 RES     
    2361 OW          18.6643    25.7621   108.1750 OW            1 RES     
    2362 HW1         18.0473    26.3961   108.6400 HW1           1 RES     
    2363 HW2         19.4763    25.6121   108.7410 HW2           1 RES     
    2364 OW          15.3033     6.3751    94.2800 OW            1 RES     
    2365 HW1         15.8393     5.6351    93.8750 HW1           1 RES     
    2366 HW2         14.3973     6.0321    94.5310 HW2           1 RES     
    2367 OW           5.7683    16.6431    90.1120 OW            1 RES     
    2368 HW1          5.4533    16.0021    90.8110 HW1           1 RES     
    2369 HW2          6.4773    16.2081    89.5560 HW2           1 RES     
    2370 OW           6.5523    14.2711   106.4700 OW            1 RES     
    2371 HW1          6.5073    13.4221   106.9950 HW1           1 RES     
    2372 HW2          7.4303    14.3251   105.9950 HW2           1 RES     
    2373 OW          10.0123    16.2991    99.9880 OW            1 RES     
    2374 HW1          9.0363    16.1291    99.8540 HW1           1 RES     
    2375 HW2         10.1463    17.2411   100.3000 HW2           1 RES     
    2376 OW          11.6873     7.6421   106.7320 OW            1 RES     
    2377 HW1         11.1603     8.0761   107.4620 HW1           1 RES     
    2378 HW2         11.2183     7.7731   105.8590 HW2           1 RES     
    2379 OW          28.8623     1.5441   100.9190 OW            1 RES     
    2380 HW1         27.9113     1.3581   100.6730 HW1           1 RES     
    2381 HW2         29.3093     0.6911   101.1910 HW2           1 RES     
    2382 OW          31.1273     8.3211    99.2950 OW            1 RES     
    2383 HW1         30.4803     8.8411    98.7380 HW1           1 RES     
    2384 HW2         31.5043     7.5691    98.7530 HW2           1 RES     
    2385 OW          11.5643     3.0341   107.4070 OW            1 RES     
    2386 HW1         11.8863     3.9511   107.6380 HW1           1 RES     
    2387 HW2         10.8183     2.7761   108.0220 HW2           1 RES     
    2388 OW          22.2643    14.6611   109.3250 OW            1 RES     
    2389 HW1         21.9873    15.5871   109.0720 HW1           1 RES     
    2390 HW2         21.5183    14.0241   109.1300 HW2           1 RES     
    2391 OW           8.2963    14.3761    90.5170 OW            1 RES     
    2392 HW1          9.2223    14.0051    90.5640 HW1           1 RES     
    2393 HW2          8.2423    15.2111    91.0640 HW2           1 RES     
    2394 OW          31.0783    20.2671   102.1300 OW            1 RES     
    2395 HW1         32.0183    20.6061   102.1230 HW1           1 RES     
    2396 HW2         30.8173    19.9881   101.2050 HW2           1 RES     
    2397 OW          22.0683    10.1651    91.1990 OW            1 RES     
    2398 HW1         21.4413     9.3961    91.3190 HW1           1 RES     
    2399 HW2         22.7483     9.9351    90.5020 HW2           1 RES     
    2400 OW          16.9773    15.2881   105.1820 OW            1 RES     
    2401 HW1         17.9483    15.1491   105.3710 HW1           1 RES     
    2402 HW2         16.4903    14.4201   105.2780 HW2           1 RES     
    2403 OW          26.4793     9.4761   106.5440 OW            1 RES     
    2404 HW1         25.9423     9.5951   107.3780 HW1           1 RES     
    2405 HW2         26.3073    10.2421   105.9240 HW2           1 RES     
    2406 OW          19.8113    11.1291    90.9770 OW            1 RES     
    2407 HW1         20.1403    10.7131    90.1290 HW1           1 RES     
    2408 HW2         19.1043    10.5481    91.3820 HW2           1 RES     
    2409 OW          16.8113     8.3681    89.9250 OW            1 RES     
    2410 HW1         17.6333     8.6821    90.3980 HW1           1 RES     
    2411 HW2         16.0193     8.4691    90.5270 HW2           1 RES     
    2412 OW          25.3553    26.5271    99.8940 OW            1 RES     
    2413 HW1         24.6153    26.0051    99.4710 HW1           1 RES     
    2414 HW2         26.2363    26.1851    99.5660 HW2           1 RES     
    2415 OW          19.0793    10.2441    94.2120 OW            1 RES     
    2416 HW1         18.1553    10.3761    93.8540 HW1           1 RES     
    2417 HW2         19.2813    10.9571    94.8840 HW2           1 RES     
    2418 OW          27.3853    11.9961    90.6010 OW            1 RES     
    2419 HW1         26.5093    12.3491    90.9290 HW1           1 RES     
    2420 HW2         27.2323    11.4191    89.7980 HW2           1 RES     
    2421 OW          25.0523     6.1781    92.9400 OW            1 RES     
    2422 HW1         24.9733     7.1291    92.6440 HW1           1 RES     
    2423 HW2         25.2723     5.6011    92.1530 HW2           1 RES     
    2424 OW          33.3463     5.3091    97.8220 OW            1 RES     
    2425 HW1         33.3803     6.2881    98.0200 HW1           1 RES     
    2426 HW2         32.3923     5.0111    97.7780 HW2           1 RES     
    2427 OW          15.7533    17.3341    93.1040 OW            1 RES     
    2428 HW1         16.1433    17.7261    93.9360 HW1           1 RES     
    2429 HW2         16.2583    17.6671    92.3080 HW2           1 RES     
    2430 OW          26.7263     8.2141    90.6650 OW            1 RES     
    2431 HW1         26.2283     7.3491    90.7190 HW1           1 RES     
    2432 HW2         26.0873     8.9551    90.4570 HW2           1 RES     
    2433 OW          18.6933    16.8281    17.5280 OW            1 RES     
    2434 HW1         19.1623    15.9451    17.5260 HW1           1 RES     
    2435 HW2         17.8203    16.7431    17.0470 HW2           1 RES     
    2436 OW          18.9713    15.2151     4.2030 OW            1 RES     
    2437 HW1         18.9313    15.4741     5.1670 HW1           1 RES     
    2438 HW2         19.2613    14.2611     4.1250 HW2           1 RES     
    2439 OW           0.7283    17.1931     8.5120 OW            1 RES     
    2440 HW1          1.6863    17.4761     8.5030 HW1           1 RES     
    2441 HW2          0.1403    18.0021     8.5060 HW2           1 RES     
    2442 OW          32.8153    15.7261    11.7730 OW            1 RES     
    2443 HW1         31.8533    15.9291    11.5930 HW1           1 RES     
    2444 HW2         33.3823    16.1291    11.0530 HW2           1 RES     
    2445 OW          21.1513    12.5971    11.6050 OW            1 RES     
    2446 HW1         21.8053    13.3521    11.6060 HW1           1 RES     
    2447 HW2         20.2203    12.9621    11.6020 HW2           1 RES     
    2448 OW          26.7013     2.5141    18.2580 OW            1 RES     
    2449 HW1         27.5083     2.0461    18.6160 HW1           1 RES     
    2450 HW2         25.8803     2.1411    18.6890 HW2           1 RES     
    2451 OW          10.5693    13.0951    15.5530 OW            1 RES     
    2452 HW1          9.8263    13.2141    16.2110 HW1           1 RES     
    2453 HW2         10.7463    12.1201    15.4220 HW2           1 RES     
    2454 OW          19.8073     9.6461    11.8440 OW            1 RES     
    2455 HW1         18.9593    10.1741    11.8340 HW1           1 RES     
    2456 HW2         20.4813    10.1061    12.4230 HW2           1 RES     
    2457 OW          13.8293    12.9451    15.7470 OW            1 RES     
    2458 HW1         13.2133    13.2121    15.0070 HW1           1 RES     
    2459 HW2         13.8053    11.9521    15.8600 HW2           1 RES     
    2460 OW           6.8063     2.6011    17.3500 OW            1 RES     
    2461 HW1          7.2763     3.4801    17.4180 HW1           1 RES     
    2462 HW2          7.4193     1.8701    17.6500 HW2           1 RES     
    2463 OW          20.5833     1.4541    10.1330 OW            1 RES     
    2464 HW1         19.6753     1.4941    10.5480 HW1           1 RES     
    2465 HW2         20.9563     2.3781    10.0540 HW2           1 RES     
    2466 OW          22.6253    19.1901     6.3120 OW            1 RES     
    2467 HW1         21.8433    18.7741     5.8480 HW1           1 RES     
    2468 HW2         23.0313    19.8881     5.7210 HW2           1 RES     
    2469 OW          28.4383    18.4781    10.0800 OW            1 RES     
    2470 HW1         28.7143    17.5171    10.0550 HW1           1 RES     
    2471 HW2         29.2523    19.0591    10.0720 HW2           1 RES     
    2472 OW          31.3003    20.6991    21.1800 OW            1 RES     
    2473 HW1         32.0673    21.2561    21.4980 HW1           1 RES     
    2474 HW2         31.5353    19.7301    21.2570 HW2           1 RES     
    2475 OW          17.9393     2.8451     8.5480 OW            1 RES     
    2476 HW1         18.5563     3.6301     8.6010 HW1           1 RES     
    2477 HW2         18.4333     2.0141     8.8070 HW2           1 RES     
    2478 OW          12.8523     7.5301    16.6250 OW            1 RES     
    2479 HW1         12.4983     8.4461    16.4420 HW1           1 RES     
    2480 HW2         13.7913     7.4611    16.2880 HW2           1 RES     
    2481 OW           8.6433    23.3561     4.0470 OW            1 RES     
    2482 HW1          9.4013    23.7411     4.5740 HW1           1 RES     
    2483 HW2          8.3983    22.4611     4.4190 HW2           1 RES     
    2484 OW          19.8183    23.1961    11.8500 OW            1 RES     
    2485 HW1         19.4763    22.2871    11.6140 HW1           1 RES     
    2486 HW2         19.1263    23.6851    12.3820 HW2           1 RES     
    2487 OW           5.0733    17.3991    13.4060 OW            1 RES     
    2488 HW1          5.7863    16.7451    13.6540 HW1           1 RES     
    2489 HW2          5.3663    18.3231    13.6520 HW2           1 RES     
    2490 OW          13.1623    12.1991    21.6100 OW            1 RES     
    2491 HW1         13.9823    12.4271    21.0850 HW1           1 RES     
    2492 HW2         13.0733    11.2051    21.6750 HW2           1 RES     
    2493 OW          21.7683     2.7641    20.5960 OW            1 RES     
    2494 HW1         20.7713     2.7041    20.6210 HW1           1 RES     
    2495 HW2         22.1583     1.8431    20.5920 HW2           1 RES     
    2496 OW          14.6873    25.8911     6.3900 OW            1 RES     
    2497 HW1         15.6803    25.9461     6.4870 HW1           1 RES     
    2498 HW2         14.4233    26.2021     5.4770 HW2           1 RES     
    2499 OW          22.9583    20.3391     0.0000 OW            1 RES     
    2500 HW1         21.9803    20.1841     0.1370 HW1           1 RES     
    2501 HW2         23.4423    19.4641     0.0250 HW2           1 RES     
    2502 OW          27.2533    14.8701    21.0610 OW            1 RES     
    2503 HW1         27.7963    14.1651    20.6060 HW1           1 RES     
    2504 HW2         26.5823    14.4371    21.6640 HW2           1 RES     
    2505 OW          12.9493    12.1481     0.0360 OW            1 RES     
    2506 HW1         13.4063    12.9271     0.4640 HW1           1 RES     
    2507 HW2         13.4983    11.3231     0.1720 HW2           1 RES     
    2508 OW          14.5373    12.4321     3.0850 OW            1 RES     
    2509 HW1         14.3283    13.2601     3.6040 HW1           1 RES     
    2510 HW2         15.4633    12.1261     3.3050 HW2           1 RES     
    2511 OW           5.9793     4.2441    19.8270 OW            1 RES     
    2512 HW1          5.7673     4.7421    18.9870 HW1           1 RES     
    2513 HW2          5.6633     3.2981    19.7430 HW2           1 RES     
    2514 OW          25.2033     7.7771     9.2830 OW            1 RES     
    2515 HW1         24.5113     8.0791     8.6290 HW1           1 RES     
    2516 HW2         25.5903     6.9051     8.9820 HW2           1 RES     
    2517 OW          22.4313    18.2251     3.6720 OW            1 RES     
    2518 HW1         22.7583    17.2821     3.6310 HW1           1 RES     
    2519 HW2         21.4313    18.2311     3.7010 HW2           1 RES     
    2520 OW           1.4563    11.5821    21.0030 OW            1 RES     
    2521 HW1          2.2923    11.0981    21.2570 HW1           1 RES     
    2522 HW2          1.5143    12.5321    21.3090 HW2           1 RES     
    2523 OW          23.4963     6.8761    14.1220 OW            1 RES     
    2524 HW1         22.5693     6.7341    14.4680 HW1           1 RES     
    2525 HW2         23.8653     6.0071    13.7920 HW2           1 RES     
    2526 OW          12.9123    10.9561    12.8210 OW            1 RES     
    2527 HW1         13.7963    10.9811    13.2870 HW1           1 RES     
    2528 HW2         12.6423    11.8851    12.5670 HW2           1 RES     
    2529 OW           8.3643     5.7841     9.5960 OW            1 RES     
    2530 HW1          8.1533     6.7571     9.5030 HW1           1 RES     
    2531 HW2          7.5203     5.2521     9.5380 HW2           1 RES     
    2532 OW          14.3933     7.9871    10.3600 OW            1 RES     
    2533 HW1         13.7523     8.6471    10.7510 HW1           1 RES     
    2534 HW2         15.0883     8.4711     9.8290 HW2           1 RES     
    2535 OW          28.4353    15.2771     3.0190 OW            1 RES     
    2536 HW1         27.6063    14.9511     3.4730 HW1           1 RES     
    2537 HW2         29.0763    14.5171     2.9100 HW2           1 RES     
    2538 OW           9.5053     6.2761    13.7080 OW            1 RES     
    2539 HW1         10.1473     5.6981    13.2040 HW1           1 RES     
    2540 HW2          9.9983     7.0441    14.1170 HW2           1 RES     
    2541 OW          31.4523    23.6501     4.2840 OW            1 RES     
    2542 HW1         31.3833    22.6991     4.5820 HW1           1 RES     
    2543 HW2         30.6273    23.9041     3.7800 HW2           1 RES     
    2544 OW          22.0143    10.6001     9.9510 OW            1 RES     
    2545 HW1         23.0033    10.5281     9.8250 HW1           1 RES     
    2546 HW2         21.6573     9.7331    10.3000 HW2           1 RES     
    2547 OW          24.7593    16.7241    20.0890 OW            1 RES     
    2548 HW1         25.1473    15.8091    20.2000 HW1           1 RES     
    2549 HW2         24.3253    17.0091    20.9440 HW2           1 RES     
    2550 OW           9.6703     0.4611    20.2320 OW            1 RES     
    2551 HW1         10.1813     1.0811    19.6370 HW1           1 RES     
    2552 HW2          8.7033     0.4731    19.9740 HW2           1 RES     
    2553 OW           0.8823     4.0591     1.3310 OW            1 RES     
    2554 HW1          1.3993     4.8861     1.5480 HW1           1 RES     
    2555 HW2          1.1573     3.7191     0.4320 HW2           1 RES     
    2556 OW          22.4653    10.2531    19.6940 OW            1 RES     
    2557 HW1         21.9833    10.4651    20.5430 HW1           1 RES     
    2558 HW2         22.6273    11.0971    19.1820 HW2           1 RES     
    2559 OW          12.4163    15.7201     0.2140 OW            1 RES     
    2560 HW1         11.8113    16.3431     0.7070 HW1           1 RES     
    2561 HW2         12.8303    15.0771     0.8580 HW2           1 RES     
    2562 OW           7.6343    19.4301    12.9920 OW            1 RES     
    2563 HW1          7.4423    19.0181    13.8820 HW1           1 RES     
    2564 HW2          8.4593    19.0181    12.6040 HW2           1 RES     
    2565 OW          22.7893     0.5931     9.1170 OW            1 RES     
    2566 HW1         22.4843     0.3321    10.0320 HW1           1 RES     
    2567 HW2         23.5433     0.0001     8.8340 HW2           1 RES     
    2568 OW          24.9383    19.7071     1.8370 OW            1 RES     
    2569 HW1         24.1073    20.2071     2.0750 HW1           1 RES     
    2570 HW2         25.7313    20.3071     1.9420 HW2           1 RES     
    2571 OW          11.9933    23.6371     7.2140 OW            1 RES     
    2572 HW1         11.1043    24.0901     7.1590 HW1           1 RES     
    2573 HW2         11.8623    22.6451     7.2190 HW2           1 RES     
    2574 OW          27.7533     9.9841    12.2980 OW            1 RES     
    2575 HW1         28.5053    10.6401    12.3530 HW1           1 RES     
    2576 HW2         27.3563     9.8541    13.2070 HW2           1 RES     
    2577 OW          15.2093    17.9881    11.2710 OW            1 RES     
    2578 HW1         14.2823    18.3471    11.1660 HW1           1 RES     
    2579 HW2         15.8693    18.7311    11.1590 HW2           1 RES     
    2580 OW          15.9603    13.3001    20.6810 OW            1 RES     
    2581 HW1         15.6623    13.2241    19.7300 HW1           1 RES     
    2582 HW2         15.7763    14.2241    21.0150 HW2           1 RES     
    2583 OW           4.1793    20.1261    14.1010 OW            1 RES     
    2584 HW1          3.4063    20.4891    14.6210 HW1           1 RES     
    2585 HW2          4.3043    20.6671    13.2690 HW2           1 RES     
    2586 OW          20.9003     6.0661    15.9010 OW            1 RES     
    2587 HW1         20.6083     5.4261    15.1910 HW1           1 RES     
    2588 HW2         21.3463     5.5621    16.6410 HW2           1 RES     
    2589 OW           7.4323    15.5571    10.0020 OW            1 RES     
    2590 HW1          8.2523    15.4561    10.5640 HW1           1 RES     
    2591 HW2          6.7023    15.9711    10.5480 HW2           1 RES     
    2592 OW          30.0833    16.2151    14.6270 OW            1 RES     
    2593 HW1         29.8533    15.4611    14.0130 HW1           1 RES     
    2594 HW2         29.2553    16.7271    14.8540 HW2           1 RES     
    2595 OW          27.4833    14.3571    14.2670 OW            1 RES     
    2596 HW1         27.6003    15.3021    14.5720 HW1           1 RES     
    2597 HW2         28.2783    13.8161    14.5440 HW2           1 RES     
    2598 OW          29.5873    19.0971    15.9990 OW            1 RES     
    2599 HW1         28.6513    18.7471    15.9910 HW1           1 RES     
    2600 HW2         30.2313    18.3311    16.0000 HW2           1 RES     
    2601 OW           9.1603     3.0261     8.8280 OW            1 RES     
    2602 HW1          8.3393     3.1061     9.3920 HW1           1 RES     
    2603 HW2          9.4693     3.9381     8.5570 HW2           1 RES     
    2604 OW          30.6043    18.6791     0.5540 OW            1 RES     
    2605 HW1         31.0493    17.7851     0.5530 HW1           1 RES     
    2606 HW2         31.2903    19.3941     0.4220 HW2           1 RES     
    2607 OW          31.8443    11.8461    20.0680 OW            1 RES     
    2608 HW1         32.5273    12.3701    19.5600 HW1           1 RES     
    2609 HW2         32.2773    11.0471    20.4840 HW2           1 RES     
    2610 OW           3.8203     3.9461    12.7620 OW            1 RES     
    2611 HW1          3.8503     4.8601    13.1650 HW1           1 RES     
    2612 HW2          2.8683     3.6691    12.6320 HW2           1 RES     
    2613 OW          20.8543     4.7061     4.1210 OW            1 RES     
    2614 HW1         21.3573     4.8651     3.2720 HW1           1 RES     
    2615 HW2         21.0443     3.7811     4.4530 HW2           1 RES     
    2616 OW          29.8853    13.5851    19.7240 OW            1 RES     
    2617 HW1         29.3433    13.8181    18.9180 HW1           1 RES     
    2618 HW2         30.7933    13.9971    19.6460 HW2           1 RES     
    2619 OW           3.4553     6.6991    11.0800 OW            1 RES     
    2620 HW1          4.1843     7.3571    11.2640 HW1           1 RES     
    2621 HW2          3.8563     5.8201    10.8230 HW2           1 RES     
    2622 OW           4.4203     2.9811     3.4670 OW            1 RES     
    2623 HW1          4.7173     2.0341     3.5880 HW1           1 RES     
    2624 HW2          5.1693     3.5991     3.7060 HW2           1 RES     
    2625 OW          14.4623     5.2321    18.9410 OW            1 RES     
    2626 HW1         14.5273     6.0781    18.4120 HW1           1 RES     
    2627 HW2         14.9963     4.5161    18.4910 HW2           1 RES     
    2628 OW          32.4733    18.3931    19.4250 OW            1 RES     
    2629 HW1         33.2633    17.8831    19.7620 HW1           1 RES     
    2630 HW2         31.6353    18.0031    19.8060 HW2           1 RES     
    2631 OW           1.4793    24.7721     5.0100 OW            1 RES     
    2632 HW1          2.4123    25.1291     5.0130 HW1           1 RES     
    2633 HW2          0.8303    25.5321     4.9630 HW2           1 RES     
    2634 OW          30.8613    19.5861     3.8120 OW            1 RES     
    2635 HW1         30.7683    19.0681     2.9620 HW1           1 RES     
    2636 HW2         31.8303    19.7161     4.0190 HW2           1 RES     
    2637 OW          25.3613    13.4301     4.4680 OW            1 RES     
    2638 HW1         25.9713    13.2571     3.6960 HW1           1 RES     
    2639 HW2         25.3813    14.4041     4.6970 HW2           1 RES     
    2640 OW          14.3383    17.1981    13.8150 OW            1 RES     
    2641 HW1         13.6293    17.3381    13.1250 HW1           1 RES     
    2642 HW2         15.1993    17.5951    13.4950 HW2           1 RES     
    2643 OW           8.0973     2.7231    12.7230 OW            1 RES     
    2644 HW1          8.9713     3.1651    12.9190 HW1           1 RES     
    2645 HW2          7.4453     3.4041    12.3880 HW2           1 RES     
    2646 OW          18.2783    18.4921     3.4000 OW            1 RES     
    2647 HW1         17.6733    17.9911     4.0180 HW1           1 RES     
    2648 HW2         18.8203    17.8431     2.8660 HW2           1 RES     
    2649 OW           2.8903    11.2151    17.5550 OW            1 RES     
    2650 HW1          3.3973    11.8861    18.0950 HW1           1 RES     
    2651 HW2          2.5503    11.6461    16.7190 HW2           1 RES     
    2652 OW          27.7993     3.1331     5.3820 OW            1 RES     
    2653 HW1         27.6533     2.3651     6.0040 HW1           1 RES     
    2654 HW2         28.0073     3.9571     5.9100 HW2           1 RES     
    2655 OW          15.3503    16.2181     3.6480 OW            1 RES     
    2656 HW1         15.6313    16.7601     2.8570 HW1           1 RES     
    2657 HW2         15.1853    15.2731     3.3650 HW2           1 RES     
    2658 OW           0.0013    18.4761     2.9430 OW            1 RES     
    2659 HW1          0.8913    18.0221     2.9650 HW1           1 RES     
    2660 HW2          0.0123    19.2011     2.2540 HW2           1 RES     
    2661 OW          30.2563     7.7231    12.3960 OW            1 RES     
    2662 HW1         30.6743     7.7051    13.3040 HW1           1 RES     
    2663 HW2         30.4313     8.6081    11.9650 HW2           1 RES     
    2664 OW          13.2593    19.8581    15.3150 OW            1 RES     
    2665 HW1         13.0423    18.8901    15.4360 HW1           1 RES     
    2666 HW2         14.2263    20.0111    15.5210 HW2           1 RES     
    2667 OW           1.4763    15.8261     6.0320 OW            1 RES     
    2668 HW1          2.1863    16.3771     6.4680 HW1           1 RES     
    2669 HW2          1.4923    14.9001     6.4100 HW2           1 RES     
    2670 OW          19.4793    20.8711     2.8700 OW            1 RES     
    2671 HW1         18.6573    21.4171     2.7110 HW1           1 RES     
    2672 HW2         20.2683    21.3291     2.4590 HW2           1 RES     
    2673 OW          23.3393     5.5301    21.6720 OW            1 RES     
    2674 HW1         23.0323     4.5851    21.5590 HW1           1 RES     
    2675 HW2         24.3293     5.5771    21.5400 HW2           1 RES     
    2676 OW           5.3853     2.8041    11.7180 OW            1 RES     
    2677 HW1          5.3813     2.2621    12.5580 HW1           1 RES     
    2678 HW2          6.0133     2.3931    11.0580 HW2           1 RES     
    2679 OW          31.0803     1.7981    11.1150 OW            1 RES     
    2680 HW1         30.2793     2.2421    10.7150 HW1           1 RES     
    2681 HW2         31.9093     2.1571    10.6870 HW2           1 RES     
    2682 OW          20.1223    19.4791     7.6840 OW            1 RES     
    2683 HW1         20.8023    20.0971     7.2910 HW1           1 RES     
    2684 HW2         20.0323    18.6691     7.1030 HW2           1 RES     
    2685 OW           3.0313    16.5061     3.6070 OW            1 RES     
    2686 HW1          3.5213    16.5871     4.4750 HW1           1 RES     
    2687 HW2          2.5203    15.6461     3.5920 HW2           1 RES     
    2688 OW          24.3363     1.4371     2.6900 OW            1 RES     
    2689 HW1         24.5043     0.4921     2.4120 HW1           1 RES     
    2690 HW2         24.8393     2.0571     2.0870 HW2           1 RES     
    2691 OW           6.3203     9.0031     1.2560 OW            1 RES     
    2692 HW1          5.7203     9.6241     1.7590 HW1           1 RES     
    2693 HW2          6.8323     8.4381     1.9030 HW2           1 RES     
    2694 OW          26.7023     5.6541    18.9490 OW            1 RES     
    2695 HW1         26.9753     5.3351    18.0430 HW1           1 RES     
    2696 HW2         26.6723     4.8801    19.5810 HW2           1 RES     
    2697 OW          16.1983     5.0391     4.2750 OW            1 RES     
    2698 HW1         15.3863     5.1491     3.7030 HW1           1 RES     
    2699 HW2         16.9853     5.4571     3.8210 HW2           1 RES     
    2700 OW          11.8063     6.9721    21.1100 OW            1 RES     
    2701 HW1         12.3703     6.3741    21.6780 HW1           1 RES     
    2702 HW2         11.6543     7.8381    21.5870 HW2           1 RES     
    2703 OW          13.6003    21.1641    11.9570 OW            1 RES     
    2704 HW1         13.8873    21.1401    12.9140 HW1           1 RES     
    2705 HW2         14.2433    20.6341    11.4030 HW2           1 RES     
    2706 OW          31.4263     6.4481     2.6660 OW            1 RES     
    2707 HW1         30.6863     6.3951     1.9950 HW1           1 RES     
    2708 HW2         31.0623     6.7761     3.5380 HW2           1 RES     
    2709 OW           3.9773    18.7471     7.0520 OW            1 RES     
    2710 HW1          3.6093    17.9541     7.5360 HW1           1 RES     
    2711 HW2          3.9253    19.5521     7.6420 HW2           1 RES     
    2712 OW          16.6633    15.8321    13.9780 OW            1 RES     
    2713 HW1         16.3843    15.0221    13.4630 HW1           1 RES     
    2714 HW2         17.6143    16.0551    13.7600 HW2           1 RES     
    2715 OW           1.3073    20.3361     5.2970 OW            1 RES     
    2716 HW1          0.5653    20.1021     4.6700 HW1           1 RES     
    2717 HW2          1.1953    21.2801     5.6090 HW2           1 RES     
    2718 OW          30.8583     4.9471    10.6640 OW            1 RES     
    2719 HW1         31.1923     4.1731    10.1270 HW1           1 RES     
    2720 HW2         31.4703     5.7281    10.5390 HW2           1 RES     
    2721 OW          19.5163    14.1461     8.4150 OW            1 RES     
    2722 HW1         18.8303    13.6281     8.9240 HW1           1 RES     
    2723 HW2         19.1343    15.0301     8.1450 HW2           1 RES     
    2724 OW           7.0903    24.6341    17.7910 OW            1 RES     
    2725 HW1          6.1893    24.8891    18.1390 HW1           1 RES     
    2726 HW2          7.0153    24.3681    16.8300 HW2           1 RES     
    2727 OW          31.7723    20.7241    10.1150 OW            1 RES     
    2728 HW1         31.1983    20.6331     9.3020 HW1           1 RES     
    2729 HW2         32.3063    19.8871    10.2420 HW2           1 RES     
    2730 OW           7.7243     4.2581    15.1730 OW            1 RES     
    2731 HW1          7.5773     4.7091    14.2930 HW1           1 RES     
    2732 HW2          8.4023     4.7701    15.7010 HW2           1 RES     
    2733 OW          15.5563    12.5271     0.1420 OW            1 RES     
    2734 HW1         15.5743    12.2941     1.1140 HW1           1 RES     
    2735 HW2         16.0103    13.4071     0.0010 HW2           1 RES     
    2736 OW           8.3393     7.1851    16.3430 OW            1 RES     
    2737 HW1          8.5123     7.5091    17.2730 HW1           1 RES     
    2738 HW2          8.4503     7.9431    15.7000 HW2           1 RES     
    2739 OW          28.2783    25.6231    16.0120 OW            1 RES     
    2740 HW1         28.5923    24.7871    15.5640 HW1           1 RES     
    2741 HW2         29.0443    26.0551    16.4890 HW2           1 RES     
    2742 OW          26.8343    16.3041     9.1650 OW            1 RES     
    2743 HW1         25.8593    16.5181     9.2180 HW1           1 RES     
    2744 HW2         27.2263    16.7311     8.3510 HW2           1 RES     
    2745 OW           0.1743     4.4291     8.8120 OW            1 RES     
    2746 HW1          1.0103     4.4821     9.3570 HW1           1 RES     
    2747 HW2          0.0013     3.4771     8.5580 HW2           1 RES     
    2748 OW          28.6783    26.1111     7.0280 OW            1 RES     
    2749 HW1         28.3123    25.1891     7.1520 HW1           1 RES     
    2750 HW2         28.9463    26.2381     6.0730 HW2           1 RES     
    2751 OW          13.7513    18.4181     6.0110 OW            1 RES     
    2752 HW1         14.0383    17.5461     5.6140 HW1           1 RES     
    2753 HW2         12.7623    18.5241     5.9020 HW2           1 RES     
    2754 OW          17.7603    16.4581     7.0850 OW            1 RES     
    2755 HW1         16.8093    16.7311     7.2280 HW1           1 RES     
    2756 HW2         18.2943    17.2501     6.7900 HW2           1 RES     
    2757 OW           4.8623    14.9301    21.3340 OW            1 RES     
    2758 HW1          4.6383    14.0181    21.6780 HW1           1 RES     
    2759 HW2          4.1663    15.5811    21.6380 HW2           1 RES     
    2760 OW          17.9733    11.8921    13.0370 OW            1 RES     
    2761 HW1         18.3933    12.6391    13.5510 HW1           1 RES     
    2762 HW2         17.5473    12.2551    12.2080 HW2           1 RES     
    2763 OW           3.7673     3.3981    17.4310 OW            1 RES     
    2764 HW1          4.7593     3.3841    17.5580 HW1           1 RES     
    2765 HW2          3.4003     4.2661    17.7670 HW2           1 RES     
    2766 OW          14.7803    20.9051     3.2880 OW            1 RES     
    2767 HW1         15.0833    20.7161     4.2220 HW1           1 RES     
    2768 HW2         15.3423    20.3871     2.6430 HW2           1 RES     
    2769 OW          26.0823    21.6991    18.4730 OW            1 RES     
    2770 HW1         26.4483    21.8421    19.3920 HW1           1 RES     
    2771 HW2         25.5613    20.8461    18.4510 HW2           1 RES     
    2772 OW          17.0173    20.9131    16.0250 OW            1 RES     
    2773 HW1         16.8653    19.9311    15.9170 HW1           1 RES     
    2774 HW2         16.1363    21.3801    16.1000 HW2           1 RES     
    2775 OW           6.0223     6.1771    10.9800 OW            1 RES     
    2776 HW1          6.2763     7.0751    10.6240 HW1           1 RES     
    2777 HW2          6.4113     6.0571    11.8930 HW2           1 RES     
    2778 OW           4.4563    17.3831     9.9130 OW            1 RES     
    2779 HW1          4.1133    16.4441     9.9080 HW1           1 RES     
    2780 HW2          3.6843    18.0191     9.8970 HW2           1 RES     
    2781 OW           1.4033    11.4121     4.7000 OW            1 RES     
    2782 HW1          2.0513    11.0841     5.3860 HW1           1 RES     
    2783 HW2          0.5063    11.5441     5.1230 HW2           1 RES     
    2784 OW           6.7723     0.5971    15.3360 OW            1 RES     
    2785 HW1          7.2493     0.0581    16.0300 HW1           1 RES     
    2786 HW2          6.1673     0.0001    14.8090 HW2           1 RES     
    2787 OW          29.9643     3.8131    20.5760 OW            1 RES     
    2788 HW1         29.2133     4.4511    20.7460 HW1           1 RES     
    2789 HW2         29.5973     2.8911    20.4530 HW2           1 RES     
    2790 OW           9.6593    17.5991    11.0020 OW            1 RES     
    2791 HW1          8.6983    17.6851    10.7410 HW1           1 RES     
    2792 HW2         10.1273    18.4681    10.8430 HW2           1 RES     
    2793 OW          27.0593    14.2461    11.9850 OW            1 RES     
    2794 HW1         27.4943    13.3641    11.8040 HW1           1 RES     
    2795 HW2         26.0673    14.1541    11.8930 HW2           1 RES     
    2796 OW           5.6173    18.6431     2.8300 OW            1 RES     
    2797 HW1          5.1303    18.1131     2.1370 HW1           1 RES     
    2798 HW2          6.1203    19.3871     2.3890 HW2           1 RES     
    2799 OW          10.4653     7.2881    11.6760 OW            1 RES     
    2800 HW1          9.5153     7.3711    11.3770 HW1           1 RES     
    2801 HW2         11.0483     7.0921    10.8880 HW2           1 RES     
    2802 OW           1.3063    24.7261    18.1170 OW            1 RES     
    2803 HW1          1.3443    23.7311    18.2000 HW1           1 RES     
    2804 HW2          1.0153    24.9731    17.1930 HW2           1 RES     
    2805 OW          13.9343    26.1921    19.6320 OW            1 RES     
    2806 HW1         13.5473    25.3971    20.0980 HW1           1 RES     
    2807 HW2         14.8783    25.9971    19.3660 HW2           1 RES     
    2808 OW           2.2613    12.9511     9.2870 OW            1 RES     
    2809 HW1          3.0823    12.4681     8.9850 HW1           1 RES     
    2810 HW2          1.6703    13.1311     8.5000 HW2           1 RES     
    2811 OW          24.0923    17.1871     7.2210 OW            1 RES     
    2812 HW1         23.2273    17.5031     7.6100 HW1           1 RES     
    2813 HW2         24.2293    17.6091     6.3250 HW2           1 RES     
    2814 OW          19.5103     6.1351    18.1070 OW            1 RES     
    2815 HW1         20.1703     6.8221    18.4090 HW1           1 RES     
    2816 HW2         19.3653     5.4681    18.8380 HW2           1 RES     
    2817 OW          22.7393     8.9381    12.0660 OW            1 RES     
    2818 HW1         23.4713     9.0601    11.3960 HW1           1 RES     
    2819 HW2         22.1613     8.1691    11.7920 HW2           1 RES     
    2820 OW           2.1423    12.1301     2.3000 OW            1 RES     
    2821 HW1          1.3183    12.5791     1.9550 HW1           1 RES     
    2822 HW2          1.9523    11.1611     2.4610 HW2           1 RES     
    2823 OW          28.6063    11.5041    21.4230 OW            1 RES     
    2824 HW1         28.8893    11.2791    20.4910 HW1           1 RES     
    2825 HW2         28.8723    12.4451    21.6340 HW2           1 RES     
    2826 OW          19.1563     8.0841     9.5010 OW            1 RES     
    2827 HW1         18.2743     8.5441     9.6070 HW1           1 RES     
    2828 HW2         19.6003     8.0041    10.3940 HW2           1 RES     
    2829 OW          21.1003    23.0071     4.0660 OW            1 RES     
    2830 HW1         21.6393    22.1701     3.9760 HW1           1 RES     
    2831 HW2         20.1283    22.7751     4.1130 HW2           1 RES     
    2832 OW          13.1883    17.8811     1.6690 OW            1 RES     
    2833 HW1         13.8253    18.6441     1.7810 HW1           1 RES     
    2834 HW2         13.7003    17.0241     1.6170 HW2           1 RES     
    2835 OW          23.8663     5.9331    11.4050 OW            1 RES     
    2836 HW1         24.2023     5.0021    11.5440 HW1           1 RES     
    2837 HW2         24.5453     6.5871    11.7400 HW2           1 RES     
    2838 OW          19.3813    17.3461    20.6070 OW            1 RES     
    2839 HW1         18.4343    17.3771    20.2890 HW1           1 RES     
    2840 HW2         19.7293    18.2781    20.7120 HW2           1 RES     
    2841 OW          24.1443    22.8931     1.5540 OW            1 RES     
    2842 HW1         23.2913    22.7781     1.0460 HW1           1 RES     
    2843 HW2         24.6753    23.6381     1.1510 HW2           1 RES     
    2844 OW          30.1953    23.6541    17.3660 OW            1 RES     
    2845 HW1         31.0993    24.0791    17.3610 HW1           1 RES     
    2846 HW2         29.8723    23.5681    18.3090 HW2           1 RES     
    2847 OW          23.8053    11.1531     4.8810 OW            1 RES     
    2848 HW1         23.4663    11.5851     5.7160 HW1           1 RES     
    2849 HW2         23.5443    11.7061     4.0900 HW2           1 RES     
    2850 OW           8.2713     9.5541    18.1260 OW            1 RES     
    2851 HW1          7.5913     9.0171    18.6240 HW1           1 RES     
    2852 HW2          9.1893     9.2711    18.4040 HW2           1 RES     
    2853 OW          17.2063    13.0431     6.1530 OW            1 RES     
    2854 HW1         16.7343    12.9801     5.2750 HW1           1 RES     
    2855 HW2         17.9093    13.7521     6.1050 HW2           1 RES     
    2856 OW           9.8843    22.5311    18.5940 OW            1 RES     
    2857 HW1          9.7323    23.4381    18.2010 HW1           1 RES     
    2858 HW2          9.0933    22.2721    19.1490 HW2           1 RES     
    2859 OW          22.0863     6.2341     9.1230 OW            1 RES     
    2860 HW1         21.8563     7.0111     9.7090 HW1           1 RES     
    2861 HW2         21.6653     5.4041     9.4880 HW2           1 RES     
    2862 OW          14.6583     5.0361    11.4820 OW            1 RES     
    2863 HW1         14.8383     5.9751    11.1920 HW1           1 RES     
    2864 HW2         15.5253     4.5661    11.6500 HW2           1 RES     
    2865 OW          11.2093    16.8831     4.3780 OW            1 RES     
    2866 HW1         11.8653    16.1411     4.5160 HW1           1 RES     
    2867 HW2         10.9123    16.8931     3.4230 HW2           1 RES     
    2868 OW           1.3753    21.1611    16.5830 OW            1 RES     
    2869 HW1          2.2093    20.6201    16.4770 HW1           1 RES     
    2870 HW2          0.6673    20.6021    17.0150 HW2           1 RES     
    2871 OW          21.2173    15.0681    21.6530 OW            1 RES     
    2872 HW1         21.6233    14.2081    21.3470 HW1           1 RES     
    2873 HW2         21.7163    15.8351    21.2490 HW2           1 RES     
    2874 OW           7.9423    17.2181     1.3630 OW            1 RES     
    2875 HW1          7.7733    17.9411     2.0330 HW1           1 RES     
    2876 HW2          7.5593    16.3571     1.6980 HW2           1 RES     
    2877 OW           5.1083    12.1191    11.2290 OW            1 RES     
    2878 HW1          5.0973    11.2171    11.6590 HW1           1 RES     
    2879 HW2          6.0523    12.4401    11.1500 HW2           1 RES     
    2880 OW          33.1253    17.9971     7.5750 OW            1 RES     
    2881 HW1         33.0093    18.3191     8.5140 HW1           1 RES     
    2882 HW2         33.1253    16.9961     7.5630 HW2           1 RES     
    2883 OW          29.8493     7.5241    18.7540 OW            1 RES     
    2884 HW1         29.9393     6.5291    18.7930 HW1           1 RES     
    2885 HW2         29.5983     7.8001    17.8260 HW2           1 RES     
    2886 OW          33.3823    15.8201    15.0630 OW            1 RES     
    2887 HW1         32.7723    15.0431    14.9110 HW1           1 RES     
    2888 HW2         33.1093    16.5791    14.4720 HW2           1 RES     
    2889 OW           0.8693     2.8811    13.2210 OW            1 RES     
    2890 HW1          0.5553     3.8121    13.4020 HW1           1 RES     
    2891 HW2          0.2933     2.4661    12.5170 HW2           1 RES     
    2892 OW           4.7633     5.3651     8.3290 OW            1 RES     
    2893 HW1          5.3573     4.5781     8.1620 HW1           1 RES     
    2894 HW2          3.8113     5.0621     8.3710 HW2           1 RES     
    2895 OW          23.9343    18.8331    14.4600 OW            1 RES     
    2896 HW1         23.4623    17.9531    14.4800 HW1           1 RES     
    2897 HW2         23.2623    19.5721    14.4140 HW2           1 RES     
    2898 OW          21.1993    10.8921     6.0460 OW            1 RES     
    2899 HW1         20.7113    10.0211     5.9890 HW1           1 RES     
    2900 HW2         20.5393    11.6431     6.0740 HW2           1 RES     
    2901 OW          16.2223    17.0021    19.1190 OW            1 RES     
    2902 HW1         16.6193    16.1051    18.9290 HW1           1 RES     
    2903 HW2         16.8373    17.7171    18.7870 HW2           1 RES     
    2904 OW          17.8083    11.0721     2.1270 OW            1 RES     
    2905 HW1         17.9003    12.0311     1.8610 HW1           1 RES     
    2906 HW2         18.7173    10.6671     2.2340 HW2           1 RES     
    2907 OW          12.5563     3.4371    20.0740 OW            1 RES     
    2908 HW1         12.9903     2.5641    19.8510 HW1           1 RES     
    2909 HW2         11.6393     3.4651    19.6770 HW2           1 RES     
    2910 OW          33.2713    22.0571    13.4590 OW            1 RES     
    2911 HW1         33.3803    21.1501    13.0530 HW1           1 RES     
    2912 HW2         32.3033    22.2241    13.6480 HW2           1 RES     
    2913 OW          21.9863    14.2881     3.5240 OW            1 RES     
    2914 HW1         22.3933    15.1491     3.2200 HW1           1 RES     
    2915 HW2         21.2043    14.0641     2.9430 HW2           1 RES     
    2916 OW          31.9743     1.3061    15.6350 OW            1 RES     
    2917 HW1         30.9933     1.1191    15.6660 HW1           1 RES     
    2918 HW2         32.4803     0.4471    15.7200 HW2           1 RES     
    2919 OW          18.1043    24.2501    15.4140 OW            1 RES     
    2920 HW1         18.8633    24.8901    15.3010 HW1           1 RES     
    2921 HW2         17.2373    24.7331    15.2900 HW2           1 RES     
    2922 OW           8.4283    13.5941    18.2640 OW            1 RES     
    2923 HW1          8.0353    13.8741    19.1400 HW1           1 RES     
    2924 HW2          8.6773    14.4061    17.7360 HW2           1 RES     
    2925 OW          10.4393     6.3581    17.0140 OW            1 RES     
    2926 HW1         10.6883     7.3261    17.0010 HW1           1 RES     
    2927 HW2         10.3463     6.0241    16.0760 HW2           1 RES     
    2928 OW           8.0463    12.8921     4.7770 OW            1 RES     
    2929 HW1          8.0253    12.0171     4.2940 HW1           1 RES     
    2930 HW2          7.5513    12.8081     5.6420 HW2           1 RES     
    2931 OW          24.6573     4.0871    18.4250 OW            1 RES     
    2932 HW1         24.2763     5.0111    18.4200 HW1           1 RES     
    2933 HW2         23.9513     3.4361    18.7030 HW2           1 RES     
    2934 OW           8.0673    15.0731     3.9730 OW            1 RES     
    2935 HW1          7.9363    14.4661     3.1910 HW1           1 RES     
    2936 HW2          7.5163    15.8991     3.8520 HW2           1 RES     
    2937 OW           5.7383    15.9991     6.4330 OW            1 RES     
    2938 HW1          4.9873    16.2561     7.0400 HW1           1 RES     
    2939 HW2          5.4183    16.0041     5.4850 HW2           1 RES     
    2940 OW          12.9263    15.8531    17.2520 OW            1 RES     
    2941 HW1         11.9953    15.4951    17.2040 HW1           1 RES     
    2942 HW2         13.3973    15.6781    16.3880 HW2           1 RES     
    2943 OW           1.7563    21.4461     2.7810 OW            1 RES     
    2944 HW1          0.7643    21.4771     2.8950 HW1           1 RES     
    2945 HW2          2.0313    20.5251     2.5020 HW2           1 RES     
    2946 OW          21.4393     2.9601     7.4220 OW            1 RES     
    2947 HW1         21.3073     2.0941     6.9410 HW1           1 RES     
    2948 HW2         20.5563     3.3001     7.7460 HW2           1 RES     
    2949 OW          22.8233    20.1681    20.4520 OW            1 RES     
    2950 HW1         23.6953    19.7551    20.1920 HW1           1 RES     
    2951 HW2         22.3383    20.4681    19.6300 HW2           1 RES     
    2952 OW          30.1013    11.6661     4.9910 OW            1 RES     
    2953 HW1         29.1333    11.9151     4.9680 HW1           1 RES     
    2954 HW2         30.3373    11.3241     5.9010 HW2           1 RES     
    2955 OW           4.0023     2.1151    15.6500 OW            1 RES     
    2956 HW1          4.8993     1.8331    15.9880 HW1           1 RES     
    2957 HW2          3.5993     1.3741    15.1120 HW2           1 RES     
    2958 OW           2.6003    17.8271     1.1200 OW            1 RES     
    2959 HW1          2.9173    16.9401     1.4520 HW1           1 RES     
    2960 HW2          3.3663    18.3231     0.7090 HW2           1 RES     
    2961 OW          24.6853     7.3241     3.0970 OW            1 RES     
    2962 HW1         24.0043     7.9391     2.7020 HW1           1 RES     
    2963 HW2         25.2663     6.9571     2.3700 HW2           1 RES     
    2964 OW           3.3403     7.8731     7.1230 OW            1 RES     
    2965 HW1          3.4763     7.2231     7.8700 HW1           1 RES     
    2966 HW2          3.0343     8.7501     7.4950 HW2           1 RES     
    2967 OW          32.3113     5.7931    14.3520 OW            1 RES     
    2968 HW1         32.4523     6.7811    14.3860 HW1           1 RES     
    2969 HW2         31.3363     5.5911    14.4550 HW2           1 RES     
    2970 OW          14.8153    11.3831     6.9600 OW            1 RES     
    2971 HW1         14.3603    12.0941     6.4250 HW1           1 RES     
    2972 HW2         15.8063    11.5071     6.9080 HW2           1 RES     
    2973 OW           3.5863    12.3801     6.3040 OW            1 RES     
    2974 HW1          4.2263    12.5331     7.0560 HW1           1 RES     
    2975 HW2          2.7583    12.9201     6.4550 HW2           1 RES     
    2976 OW          16.9343    18.9971     7.2760 OW            1 RES     
    2977 HW1         16.4873    19.6981     7.8300 HW1           1 RES     
    2978 HW2         17.0353    19.3271     6.3370 HW2           1 RES     
    2979 OW          15.3163    10.7761    18.1590 OW            1 RES     
    2980 HW1         15.4723     9.8191    18.4000 HW1           1 RES     
    2981 HW2         16.1853    11.2721    18.1830 HW2           1 RES     
    2982 OW          21.9113    14.2441    13.7520 OW            1 RES     
    2983 HW1         21.9653    13.2511    13.8570 HW1           1 RES     
    2984 HW2         20.9583    14.5131    13.6110 HW2           1 RES     
    2985 OW           8.0073    23.1591     7.9020 OW            1 RES     
    2986 HW1          8.5093    23.0371     7.0460 HW1           1 RES     
    2987 HW2          8.3743    23.9491     8.3940 HW2           1 RES     
    2988 OW           4.8783    21.8911     9.8570 OW            1 RES     
    2989 HW1          3.8853    21.9371     9.7520 HW1           1 RES     
    2990 HW2          5.1103    21.1851    10.5270 HW2           1 RES     
    2991 OW          28.7753     2.8421    14.4430 OW            1 RES     
    2992 HW1         27.7993     2.7551    14.2460 HW1           1 RES     
    2993 HW2         28.9433     3.6991    14.9300 HW2           1 RES     
    2994 OW           6.7563    15.8021    19.6080 OW            1 RES     
    2995 HW1          6.0413    16.4811    19.7690 HW1           1 RES     
    2996 HW2          6.8513    15.2191    20.4150 HW2           1 RES     
    2997 OW          15.1593    13.8871    17.6270 OW            1 RES     
    2998 HW1         14.8383    14.7981    17.8810 HW1           1 RES     
    2999 HW2         14.4653    13.2091    17.8680 HW2           1 RES     
    3000 OW          18.4823    26.2081    18.5470 OW            1 RES     
    3001 HW1         19.2313    26.3721    19.1880 HW1           1 RES     
    3002 HW2         18.1833    25.2571    18.6190 HW2           1 RES     
    3003 OW          29.4963    22.7811    11.2200 OW            1 RES     
    3004 HW1         30.3323    22.3681    10.8590 HW1           1 RES     
    3005 HW2         28.8413    22.0611    11.4500 HW2           1 RES     
    3006 OW          24.1703    14.8301    10.2410 OW            1 RES     
    3007 HW1         25.0233    14.3841     9.9710 HW1           1 RES     
    3008 HW2         23.7953    14.3721    11.0470 HW2           1 RES     
    3009 OW          12.7333    13.3731     7.9310 OW            1 RES     
    3010 HW1         12.1883    12.9581     8.6580 HW1           1 RES     
    3011 HW2         12.7603    14.3651     8.0590 HW2           1 RES     
    3012 OW          16.2523    22.9401    13.1210 OW            1 RES     
    3013 HW1         15.7053    22.3261    12.5540 HW1           1 RES     
    3014 HW2         16.1213    23.8831    12.8160 HW2           1 RES     
    3015 OW          28.9603    16.7461     5.4200 OW            1 RES     
    3016 HW1         29.6713    17.2001     4.8840 HW1           1 RES     
    3017 HW2         29.3863    16.1821     6.1290 HW2           1 RES     
    3018 OW          17.9373    23.8591     1.6480 OW            1 RES     
    3019 HW1         17.5703    22.9351     1.5420 HW1           1 RES     
    3020 HW2         18.7273    23.9761     1.0450 HW2           1 RES     
    3021 OW          10.6363     6.9921     8.4660 OW            1 RES     
    3022 HW1         10.3183     6.0571     8.6210 HW1           1 RES     
    3023 HW2          9.8963     7.5351     8.0690 HW2           1 RES     
    3024 OW          32.5473    19.8641    15.3980 OW            1 RES     
    3025 HW1         31.6903    19.9781    15.8980 HW1           1 RES     
    3026 HW2         32.4943    19.0471    14.8240 HW2           1 RES     
    3027 OW          10.0923     3.3641    17.8360 OW            1 RES     
    3028 HW1         10.5753     4.0651    17.3120 HW1           1 RES     
    3029 HW2          9.4943     2.8431    17.2260 HW2           1 RES     
    3030 OW          22.7943    22.2911     8.5460 OW            1 RES     
    3031 HW1         22.1263    21.7181     8.0740 HW1           1 RES     
    3032 HW2         22.3923    22.6461     9.3910 HW2           1 RES     
    3033 OW          26.7243    14.5931    18.0060 OW            1 RES     
    3034 HW1         25.8633    14.5891    18.5120 HW1           1 RES     
    3035 HW2         27.2643    15.3931    18.2700 HW2           1 RES     
    3036 OW           5.6213     5.3131    16.0620 OW            1 RES     
    3037 HW1          4.6833     5.6281    15.9270 HW1           1 RES     
    3038 HW2          6.2503     5.9151    15.5700 HW2           1 RES     
    3039 OW           5.2553    15.8691     2.0130 OW            1 RES     
    3040 HW1          4.7683    15.1391     1.5340 HW1           1 RES     
    3041 HW2          5.3603    15.6241     2.9770 HW2           1 RES     
    3042 OW           1.2323    13.1231    11.2530 OW            1 RES     
    3043 HW1          0.4613    12.4881    11.2580 HW1           1 RES     
    3044 HW2          0.8903    14.0631    11.2620 HW2           1 RES     
    3045 OW          19.4123    19.8691    13.6530 OW            1 RES     
    3046 HW1         18.8563    20.6981    13.6040 HW1           1 RES     
    3047 HW2         18.9423    19.1241    13.1780 HW2           1 RES     
    3048 OW          18.3633     4.2531    11.3310 OW            1 RES     
    3049 HW1         18.1903     5.0051    11.9660 HW1           1 RES     
    3050 HW2         17.5143     3.7511    11.1680 HW2           1 RES     
    3051 OW           8.1563    20.4221     8.6240 OW            1 RES     
    3052 HW1          9.0303    20.5161     8.1490 HW1           1 RES     
    3053 HW2          7.9253    21.2861     9.0730 HW2           1 RES     
    3054 OW          17.9123     4.3951    14.1830 OW            1 RES     
    3055 HW1         18.3593     5.2881    14.2190 HW1           1 RES     
    3056 HW2         18.5843     3.6771    14.3690 HW2           1 RES     
    3057 OW           3.7403    11.2001     3.9790 OW            1 RES     
    3058 HW1          4.5873    10.8501     4.3790 HW1           1 RES     
    3059 HW2          3.8263    12.1841     3.8230 HW2           1 RES     
    3060 OW           2.1463    26.4891     2.3830 OW            1 RES     
    3061 HW1          1.9813    26.5241     3.3680 HW1           1 RES     
    3062 HW2          2.8933    25.8511     2.1920 HW2           1 RES     
    3063 OW           5.1793     9.5081    17.7360 OW            1 RES     
    3064 HW1          5.1963    10.4681    17.4610 HW1           1 RES     
    3065 HW2          4.2483     9.2511    17.9950 HW2           1 RES     
    3066 OW           6.0843    13.6161    16.7160 OW            1 RES     
    3067 HW1          6.1203    14.6131    16.6460 HW1           1 RES     
    3068 HW2          5.1323    13.3221    16.8030 HW2           1 RES     
    3069 OW          15.8393    24.4861     3.8390 OW            1 RES     
    3070 HW1         16.1533    25.4161     3.6540 HW1           1 RES     
    3071 HW2         14.8473    24.4381     3.7170 HW2           1 RES     
    3072 OW          21.9083    19.4771    16.9790 OW            1 RES     
    3073 HW1         22.7193    19.0001    17.3180 HW1           1 RES     
    3074 HW2         22.0983    20.4571    16.9200 HW2           1 RES     
    3075 OW          30.2283    21.9771     1.1680 OW            1 RES     
    3076 HW1         31.1223    21.6821     1.5020 HW1           1 RES     
    3077 HW2         29.7413    21.1951     0.7800 HW2           1 RES     
    3078 OW           5.9253    11.8361     1.7720 OW            1 RES     
    3079 HW1          5.1663    12.4651     1.9310 HW1           1 RES     
    3080 HW2          6.5863    11.9151     2.5190 HW2           1 RES     
    3081 OW          31.1803     3.8151     5.7030 OW            1 RES     
    3082 HW1         30.1873     3.7121     5.6610 HW1           1 RES     
    3083 HW2         31.4473     4.1021     6.6240 HW2           1 RES     
    3084 OW           7.2403     5.7691    17.7130 OW            1 RES     
    3085 HW1          7.7743     5.6531    18.5500 HW1           1 RES     
    3086 HW2          6.6133     6.5411    17.8220 HW2           1 RES     
    3087 OW          25.5623    12.9481    14.5540 OW            1 RES     
    3088 HW1         25.3653    12.2521    15.2440 HW1           1 RES     
    3089 HW2         26.0863    12.5371    13.8070 HW2           1 RES     
    3090 OW           2.8323    17.2321    17.4720 OW            1 RES     
    3091 HW1          2.3263    17.2141    18.3330 HW1           1 RES     
    3092 HW2          3.0953    18.1741    17.2590 HW2           1 RES     
    3093 OW          11.0473    13.6701    19.4440 OW            1 RES     
    3094 HW1         11.7403    14.0821    20.0340 HW1           1 RES     
    3095 HW2         10.1763    14.1461    19.5690 HW2           1 RES     
    3096 OW          13.0463     7.9021     7.2530 OW            1 RES     
    3097 HW1         12.1943     8.3871     7.0560 HW1           1 RES     
    3098 HW2         12.8533     6.9301     7.3910 HW2           1 RES     
    3099 OW           7.6013    17.9161    19.0990 OW            1 RES     
    3100 HW1          7.2423    18.8271    19.3020 HW1           1 RES     
    3101 HW2          7.3693    17.6681    18.1590 HW2           1 RES     
    3102 OW          12.6543     4.4311    17.9780 OW            1 RES     
    3103 HW1         13.0073     3.5811    17.5890 HW1           1 RES     
    3104 HW2         12.5233     5.1031    17.2480 HW2           1 RES     
    3105 OW          11.4993     4.0511     3.7360 OW            1 RES     
    3106 HW1         11.9773     3.3431     4.2540 HW1           1 RES     
    3107 HW2         10.8773     4.5461     4.3430 HW2           1 RES     
    3108 OW           7.9833    11.3441    16.6440 OW            1 RES     
    3109 HW1          7.3013    11.3921    17.3730 HW1           1 RES     
    3110 HW2          7.5753    11.6531    15.7840 HW2           1 RES     
    3111 OW           2.2423    21.5941     0.1770 OW            1 RES     
    3112 HW1          1.9523    22.3581     0.7530 HW1           1 RES     
    3113 HW2          1.4933    20.9361     0.0920 HW2           1 RES     
    3114 OW           2.0813    22.9041     8.7940 OW            1 RES     
    3115 HW1          1.8903    22.8651     9.7740 HW1           1 RES     
    3116 HW2          2.7853    23.5921     8.6180 HW2           1 RES     
    3117 OW           9.1583    26.3381    16.8410 OW            1 RES     
    3118 HW1          8.8553    26.5271    17.7740 HW1           1 RES     
    3119 HW2          8.9613    25.3851    16.6120 HW2           1 RES     
    3120 OW          11.2453     0.0091    10.8290 OW            1 RES     
    3121 HW1         11.1383     0.6221    11.6110 HW1           1 RES     
    3122 HW2         10.4023     0.0031    10.2910 HW2           1 RES     
    3123 OW          13.7113    15.2291    21.1390 OW            1 RES     
    3124 HW1         12.9303    15.7951    20.8790 HW1           1 RES     
    3125 HW2         14.3603    15.7781    21.6670 HW2           1 RES     
    3126 OW          21.0983    11.5931    15.8050 OW            1 RES     
    3127 HW1         21.8423    12.2601    15.8170 HW1           1 RES     
    3128 HW2         20.2263    12.0681    15.6840 HW2           1 RES     
    3129 OW           5.8843    12.2001    19.6330 OW            1 RES     
    3130 HW1          5.3103    12.0301    20.4340 HW1           1 RES     
    3131 HW2          6.4763    11.4101    19.4730 HW2           1 RES     
    3132 OW          14.4903    10.1161    20.3470 OW            1 RES     
    3133 HW1         14.3993     9.1211    20.3900 HW1           1 RES     
    3134 HW2         13.7993    10.4871    19.7260 HW2           1 RES     
    3135 OW          21.1333    15.2661     9.7690 OW            1 RES     
    3136 HW1         20.4893    14.7201    10.3030 HW1           1 RES     
    3137 HW2         21.7863    14.6611     9.3130 HW2           1 RES     
    3138 OW          26.5303     1.8131    15.8300 OW            1 RES     
    3139 HW1         27.3673     1.5021    16.2780 HW1           1 RES     
    3140 HW2         25.8303     1.1011    15.8980 HW2           1 RES     
    3141 OW          27.7963     3.6321    11.8720 OW            1 RES     
    3142 HW1         26.9753     4.1221    12.1650 HW1           1 RES     
    3143 HW2         27.6673     2.6501    12.0150 HW2           1 RES     
    3144 OW           3.8723     8.6761     2.4880 OW            1 RES     
    3145 HW1          3.1943     7.9501     2.6020 HW1           1 RES     
    3146 HW2          3.4123     9.5221     2.2180 HW2           1 RES     
    3147 OW          29.0093     7.5931    15.4230 OW            1 RES     
    3148 HW1         29.1963     8.5731    15.3710 HW1           1 RES     
    3149 HW2         28.6683     7.2701    14.5400 HW2           1 RES     
    3150 OW          19.3303     1.3571     3.9550 OW            1 RES     
    3151 HW1         18.3693     1.1281     4.1050 HW1           1 RES     
    3152 HW2         19.4353     2.3511     3.9220 HW2           1 RES     
    3153 OW           8.9623    12.8211     9.2430 OW            1 RES     
    3154 HW1          9.5653    12.0431     9.4210 HW1           1 RES     
    3155 HW2          9.1103    13.5231     9.9400 HW2           1 RES     
    3156 OW           9.1883    11.7821    21.0510 OW            1 RES     
    3157 HW1          8.6723    12.0831    20.2500 HW1           1 RES     
    3158 HW2          9.4873    12.5801    21.5750 HW2           1 RES     
    3159 OW           0.5463    23.2991     6.3800 OW            1 RES     
    3160 HW1          0.0483    23.7991     7.0880 HW1           1 RES     
    3161 HW2          1.5163    23.2601     6.6190 HW2           1 RES     
    3162 OW          31.1303    15.7241    18.2620 OW            1 RES     
    3163 HW1         30.8023    16.2811    17.5000 HW1           1 RES     
    3164 HW2         31.9623    16.1311    18.6400 HW2           1 RES     
    3165 OW          28.0503    16.6131     1.0640 OW            1 RES     
    3166 HW1         28.1293    17.4291     1.6350 HW1           1 RES     
    3167 HW2         28.3213    16.8321     0.1270 HW2           1 RES     
    3168 OW          21.1783    11.5461     3.4920 OW            1 RES     
    3169 HW1         20.2983    11.1201     3.6960 HW1           1 RES     
    3170 HW2         21.7763    10.8801     3.0450 HW2           1 RES     
    3171 OW          24.8143    24.7571     3.9440 OW            1 RES     
    3172 HW1         25.2713    25.6461     3.9760 HW1           1 RES     
    3173 HW2         24.3313    24.6621     3.0730 HW2           1 RES     
    3174 OW           5.8633    16.7251     0.0500 OW            1 RES     
    3175 HW1          4.8653    16.7181     0.0010 HW1           1 RES     
    3176 HW2          6.1893    17.6691     0.0910 HW2           1 RES     
    3177 OW          27.7313    10.3441     9.5590 OW            1 RES     
    3178 HW1         28.4513    10.7191    10.1420 HW1           1 RES     
    3179 HW2         27.8043    10.7391     8.6430 HW2           1 RES     
    3180 OW           1.1483    21.1241    19.4090 OW            1 RES     
    3181 HW1          1.8313    21.8531    19.3820 HW1           1 RES     
    3182 HW2          1.6043    20.2431    19.5310 HW2           1 RES     
    3183 OW          15.3003    15.3331     0.8060 OW            1 RES     
    3184 HW1         15.2363    16.1831     0.2840 HW1           1 RES     
    3185 HW2         16.1963    15.2801     1.2480 HW2           1 RES     
    3186 OW          13.4663     4.6761     9.6650 OW            1 RES     
    3187 HW1         12.9123     4.2601    10.3850 HW1           1 RES     
    3188 HW2         14.2543     4.0911     9.4710 HW2           1 RES     
    3189 OW          28.8353    11.4421     1.7570 OW            1 RES     
    3190 HW1         28.3023    12.2331     1.4600 HW1           1 RES     
    3191 HW2         29.3093    11.0441     0.9710 HW2           1 RES     
    3192 OW          24.0253    11.5731    11.4780 OW            1 RES     
    3193 HW1         24.7793    10.9471    11.2800 HW1           1 RES     
    3194 HW2         23.9363    11.6861    12.4670 HW2           1 RES     
    3195 OW          10.5943    17.8231     7.9720 OW            1 RES     
    3196 HW1         11.5393    17.8261     8.2980 HW1           1 RES     
    3197 HW2         10.0593    18.4901     8.4910 HW2           1 RES     
    3198 OW          10.7863    12.8011     1.7780 OW            1 RES     
    3199 HW1         10.8593    12.2491     0.9480 HW1           1 RES     
    3200 HW2         11.6563    13.2621     1.9510 HW2           1 RES     
    3201 OW          13.9683     3.0921     5.3270 OW            1 RES     
    3202 HW1         14.6763     2.3871     5.2950 HW1           1 RES     
    3203 HW2         14.3953     3.9961     5.2970 HW2           1 RES     
    3204 OW          18.2293    14.6171    20.4380 OW            1 RES     
    3205 HW1         18.2983    13.6411    20.6430 HW1           1 RES     
    3206 HW2         19.1413    14.9841    20.2530 HW2           1 RES     
    3207 OW          10.2453    16.7191    12.9690 OW            1 RES     
    3208 HW1          9.2893    16.4831    13.1360 HW1           1 RES     
    3209 HW2         10.4913    17.5231    13.5120 HW2           1 RES     
    3210 OW          20.7173     5.1751     6.5260 OW            1 RES     
    3211 HW1         20.7573     5.4841     7.4760 HW1           1 RES     
    3212 HW2         20.7173     5.9691     5.9170 HW2           1 RES     
    3213 OW          21.9603     8.6231     0.7690 OW            1 RES     
    3214 HW1         21.9183     9.1251     1.6320 HW1           1 RES     
    3215 HW2         22.3033     9.2261     0.0480 HW2           1 RES     
    3216 OW           5.0793    13.9591     4.4530 OW            1 RES     
    3217 HW1          5.0323    13.8241     5.4420 HW1           1 RES     
    3218 HW2          6.0263    13.8581     4.1470 HW2           1 RES     
    3219 OW          18.7323    14.8321    15.2540 OW            1 RES     
    3220 HW1         17.8073    14.4531    15.2660 HW1           1 RES     
    3221 HW2         19.3993    14.0871    15.2520 HW2           1 RES     
    3222 OW           8.6343     3.8321    21.4530 OW            1 RES     
    3223 HW1          9.5893     4.1271    21.4710 HW1           1 RES     
    3224 HW2          8.0423     4.6271    21.3190 HW2           1 RES     
    3225 OW          28.1423    21.5201    16.8290 OW            1 RES     
    3226 HW1         27.5863    20.7331    17.0940 HW1           1 RES     
    3227 HW2         28.3963    22.0391    17.6450 HW2           1 RES     
    3228 OW          11.0823     2.9331    10.4370 OW            1 RES     
    3229 HW1         10.2653     2.4541    10.7570 HW1           1 RES     
    3230 HW2         11.8363     2.2821    10.3440 HW2           1 RES     
    3231 OW           6.2053     7.9951    13.8710 OW            1 RES     
    3232 HW1          6.7413     8.0121    13.0280 HW1           1 RES     
    3233 HW2          6.3063     8.8681    14.3490 HW2           1 RES     
    3234 OW          21.8273     3.1911    14.1830 OW            1 RES     
    3235 HW1         21.0043     2.6291    14.1060 HW1           1 RES     
    3236 HW2         21.7253     4.0121    13.6210 HW2           1 RES     
    3237 OW          33.3823    19.6241     2.1700 OW            1 RES     
    3238 HW1         32.8043    18.8081     2.1720 HW1           1 RES     
    3239 HW2         32.8063    20.4411     2.1860 HW2           1 RES     
    3240 OW           9.8193    24.4131    20.7040 OW            1 RES     
    3241 HW1          9.3703    25.3061    20.7070 HW1           1 RES     
    3242 HW2         10.8113    24.5381    20.6950 HW2           1 RES     
    3243 OW          23.6553     4.8291     4.4140 OW            1 RES     
    3244 HW1         23.4303     5.7971     4.5260 HW1           1 RES     
    3245 HW2         23.7133     4.6111     3.4390 HW2           1 RES     
    3246 OW          26.9013    19.7601    15.0140 OW            1 RES     
    3247 HW1         26.0273    19.7711    14.5300 HW1           1 RES     
    3248 HW2         27.3533    20.6451    14.9080 HW2           1 RES     
    3249 OW          12.4413     3.1281    15.4900 OW            1 RES     
    3250 HW1         11.4773     2.9271    15.6590 HW1           1 RES     
    3251 HW2         12.9453     2.2721    15.3690 HW2           1 RES     
    3252 OW          22.1413     7.7051    18.9300 OW            1 RES     
    3253 HW1         21.4763     8.3161    19.3600 HW1           1 RES     
    3254 HW2         22.5293     8.1491    18.1220 HW2           1 RES     
    3255 OW          27.9703    21.9451     7.8920 OW            1 RES     
    3256 HW1         27.3153    22.1791     7.1750 HW1           1 RES     
    3257 HW2         27.9843    22.6681     8.5820 HW2           1 RES     
    3258 OW          25.4243    20.3361     4.1450 OW            1 RES     
    3259 HW1         24.5563    20.8311     4.1410 HW1           1 RES     
    3260 HW2         25.6663    20.0941     5.0850 HW2           1 RES     
    3261 OW           0.0003     9.4981     6.9490 OW            1 RES     
    3262 HW1          0.9313     9.6431     6.6140 HW1           1 RES     
    3263 HW2          0.0103     9.4341     7.9470 HW2           1 RES     
    3264 OW          10.0583    17.7291     1.0020 OW            1 RES     
    3265 HW1         10.8303    18.1651     1.4640 HW1           1 RES     
    3266 HW2          9.8923    18.1831     0.1270 HW2           1 RES     
    3267 OW           1.6903     6.0121    14.8150 OW            1 RES     
    3268 HW1          0.7483     6.1761    15.1060 HW1           1 RES     
    3269 HW2          1.9853     5.1111    15.1340 HW2           1 RES     
    3270 OW          19.7973    20.1871    16.9470 OW            1 RES     
    3271 HW1         19.3753    21.0401    16.6390 HW1           1 RES     
    3272 HW2         19.1003    19.4721    17.0020 HW2           1 RES     
    3273 OW          18.0593    25.6951     5.9560 OW            1 RES     
    3274 HW1         17.6163    26.5251     5.6180 HW1           1 RES     
    3275 HW2         18.7833    25.4211     5.3230 HW2           1 RES     
    3276 OW          26.8303    19.6671     9.1080 OW            1 RES     
    3277 HW1         27.3293    19.7071     8.2430 HW1           1 RES     
    3278 HW2         26.2693    20.4891     9.2080 HW2           1 RES     
    3279 OW          11.4233    26.5181    18.3190 OW            1 RES     
    3280 HW1         12.0593    25.7741    18.5230 HW1           1 RES     
    3281 HW2         10.6903    26.5261    18.9990 HW2           1 RES     
    3282 OW          12.0883    22.3161    16.0510 OW            1 RES     
    3283 HW1         11.2903    22.9121    16.1350 HW1           1 RES     
    3284 HW2         12.8643    22.8431    15.7030 HW2           1 RES     
    3285 OW          31.9873    13.6421    16.6970 OW            1 RES     
    3286 HW1         31.2573    14.1291    16.2190 HW1           1 RES     
    3287 HW2         32.6033    14.3021    17.1280 HW2           1 RES     
    3288 OW          29.2663     5.1291     8.4120 OW            1 RES     
    3289 HW1         28.4383     5.0621     8.9680 HW1           1 RES     
    3290 HW2         29.0153     5.3071     7.4610 HW2           1 RES     
    3291 OW          13.8333     0.6391     9.1430 OW            1 RES     
    3292 HW1         12.9683     0.2011     9.3870 HW1           1 RES     
    3293 HW2         13.8353     1.5811     9.4780 HW2           1 RES     
    3294 OW          19.8753     9.9821    21.0020 OW            1 RES     
    3295 HW1         19.3913    10.5381    21.6770 HW1           1 RES     
    3296 HW2         19.7473     9.0131    21.2150 HW2           1 RES     
    3297 OW          12.2313     9.1941    18.8860 OW            1 RES     
    3298 HW1         12.4563     8.2201    18.8890 HW1           1 RES     
    3299 HW2         11.3503     9.3341    19.3390 HW2           1 RES     
    3300 OW          33.1553    17.8891    17.1210 OW            1 RES     
    3301 HW1         32.1643    18.0051    17.0590 HW1           1 RES     
    3302 HW2         33.3753    16.9141    17.1470 HW2           1 RES     
    3303 OW          17.3183    23.0181     4.9940 OW            1 RES     
    3304 HW1         18.2693    22.9751     5.2990 HW1           1 RES     
    3305 HW2         17.0863    22.1771     4.5050 HW2           1 RES     
    3306 OW          31.3363     7.2821    16.4760 OW            1 RES     
    3307 HW1         31.7583     7.4791    17.3600 HW1           1 RES     
    3308 HW2         31.4453     8.0701    15.8700 HW2           1 RES     
    3309 OW           9.5313     2.3271     2.4310 OW            1 RES     
    3310 HW1          9.4393     2.9201     3.2300 HW1           1 RES     
    3311 HW2          9.9243     1.4501     2.7080 HW2           1 RES     
    3312 OW          26.1643    18.8141    19.9200 OW            1 RES     
    3313 HW1         26.8213    18.3631    20.5230 HW1           1 RES     
    3314 HW2         25.8933    19.6911    20.3170 HW2           1 RES     
    3315 OW          15.5233    14.7621     5.7980 OW            1 RES     
    3316 HW1         14.7393    15.3421     5.5810 HW1           1 RES     
    3317 HW2         16.3683    15.2361     5.5500 HW2           1 RES     
    3318 OW           5.4783    10.5621     6.4300 OW            1 RES     
    3319 HW1          6.2953    11.1361     6.4110 HW1           1 RES     
    3320 HW2          5.7453     9.5991     6.4030 HW2           1 RES     
    3321 OW          15.9463    12.0511    15.3640 OW            1 RES     
    3322 HW1         15.8743    11.1711    15.8310 HW1           1 RES     
    3323 HW2         16.7683    12.5291    15.6750 HW2           1 RES     
    3324 OW          13.9633     8.0371     2.3200 OW            1 RES     
    3325 HW1         13.6083     8.8571     2.7690 HW1           1 RES     
    3326 HW2         14.1963     8.2501     1.3710 HW2           1 RES     
    3327 OW           9.1733    26.3581    11.3960 OW            1 RES     
    3328 HW1         10.1183    26.0731    11.2410 HW1           1 RES     
    3329 HW2          8.5523    25.7161    10.9450 HW2           1 RES     
    3330 OW          11.0513    14.8531     9.3600 OW            1 RES     
    3331 HW1         10.4383    15.2581     8.6830 HW1           1 RES     
    3332 HW2         11.1063    15.4511    10.1600 HW2           1 RES     
    3333 OW          16.3213     6.0751     0.9920 OW            1 RES     
    3334 HW1         15.6393     6.7311     0.6720 HW1           1 RES     
    3335 HW2         15.8653     5.3291     1.4780 HW2           1 RES     
    3336 OW           1.9213    15.3281    14.7570 OW            1 RES     
    3337 HW1          0.9323    15.4431    14.6780 HW1           1 RES     
    3338 HW2          2.3583    16.2271    14.8100 HW2           1 RES     
    3339 OW           0.9763     5.7651    11.3880 OW            1 RES     
    3340 HW1          1.8133     5.4291    11.8180 HW1           1 RES     
    3341 HW2          0.2383     5.7831    12.0630 HW2           1 RES     
    3342 OW          16.0373     1.7971     7.5840 OW            1 RES     
    3343 HW1         15.2513     2.3931     7.4220 HW1           1 RES     
    3344 HW2         15.7223     0.8571     7.7120 HW2           1 RES     
    3345 OW          12.0473     3.1711    13.3190 OW            1 RES     
    3346 HW1         11.2513     3.3811    12.7530 HW1           1 RES     
    3347 HW2         12.6203     2.4961    12.8530 HW2           1 RES     
    3348 OW          32.8043    16.4081     1.4770 OW            1 RES     
    3349 HW1         33.3813    15.7751     1.9910 HW1           1 RES     
    3350 HW2         33.3813    17.0341     0.9520 HW2           1 RES     
    3351 OW          22.0353    14.6071    18.1640 OW            1 RES     
    3352 HW1         22.3823    14.6701    17.2290 HW1           1 RES     
    3353 HW2         21.1003    14.9611    18.1980 HW2           1 RES     
    3354 OW           3.6173    23.3241     2.6610 OW            1 RES     
    3355 HW1          4.1863    24.1431     2.7340 HW1           1 RES     
    3356 HW2          4.1613    22.5181     2.8930 HW2           1 RES     
    3357 OW          27.9923    22.4951     2.8320 OW            1 RES     
    3358 HW1         28.4493    23.3571     3.0510 HW1           1 RES     
    3359 HW2         28.3133    21.7801     3.4530 HW2           1 RES     
    3360 OW           9.5693     8.6681    20.7620 OW            1 RES     
    3361 HW1          8.6143     8.3751    20.7210 HW1           1 RES     
    3362 HW2          9.6193     9.6611    20.6560 HW2           1 RES     
    3363 OW           9.8693    23.0991    14.4660 OW            1 RES     
    3364 HW1          8.9873    23.1691    14.0020 HW1           1 RES     
    3365 HW2         10.5183    23.7351    14.0490 HW2           1 RES     
    3366 OW           7.4973     5.9651     6.7130 OW            1 RES     
    3367 HW1          7.8533     6.8251     7.0770 HW1           1 RES     
    3368 HW2          6.4993     6.0061     6.6730 HW2           1 RES     
    3369 OW          17.7733    10.5491     8.8440 OW            1 RES     
    3370 HW1         17.3613    11.4501     8.7160 HW1           1 RES     
    3371 HW2         18.3043    10.3051     8.0320 HW2           1 RES     
    3372 OW           1.7903     5.1631     6.1180 OW            1 RES     
    3373 HW1          1.3033     5.9041     6.5790 HW1           1 RES     
    3374 HW2          1.6403     4.3071     6.6130 HW2           1 RES     
    3375 OW          26.3823    17.2001    14.3250 OW            1 RES     
    3376 HW1         27.0173    17.8481    13.9060 HW1           1 RES     
    3377 HW2         25.9613    17.6171    15.1300 HW2           1 RES     
    3378 OW          28.6003     6.0601     4.0440 OW            1 RES     
    3379 HW1         27.8393     5.7201     4.5970 HW1           1 RES     
    3380 HW2         29.3403     5.3871     4.0450 HW2           1 RES     
    3381 OW          19.9503    11.7381     8.8070 OW            1 RES     
    3382 HW1         19.6143    11.4171     9.6910 HW1           1 RES     
    3383 HW2         20.3983    10.9841     8.3260 HW2           1 RES     
    3384 OW           9.3303    19.5741    19.7480 OW            1 RES     
    3385 HW1          9.8903    18.9431    20.2840 HW1           1 RES     
    3386 HW2          9.1263    20.3861    20.2950 HW2           1 RES     
    3387 OW          14.0673    23.7981    10.1950 OW            1 RES     
    3388 HW1         15.0553    23.8811    10.3250 HW1           1 RES     
    3389 HW2         13.7323    22.9961    10.6890 HW2           1 RES     
    3390 OW          20.6453     3.0361    18.3270 OW            1 RES     
    3391 HW1         21.1103     3.9171    18.2380 HW1           1 RES     
    3392 HW2         19.7393     3.0931    17.9080 HW2           1 RES     
@<TRIPOS>BOND
       1     1166     1167 1
       2      312      313 1
       3     1318     1319 1
       4     1170     1171 1
       5     1944     1946 1
       6      276      275 1
       7     1279     1280 1
       8     1276     1277 1
       9     2526     2528 1
      10     2364     2366 1
      11     2445     2447 1
      12     3282     3284 1
      13     3363     3365 1
      14      986      987 1
      15        2        4 1
      16      649      650 1
      17      466      467 1
      18      197      196 1
      19      495      494 1
      20      978      979 1
      21      310      311 1
      22     1656     1657 1
      23     1488     1489 1
      24     1704     1705 1
      25     1584     1585 1
      26     1608     1609 1
      27     1536     1537 1
      28     3387     3389 1
      29     2550     2552 1
      30     3090     3092 1
      31     2631     2633 1
      32     2469     2471 1
      33     2334     2336 1
      34     1929     1931 1
      35     2091     2093 1
      36     1917     1919 1
      37     1887     1889 1
      38     1695     1697 1
      39     2994     2995 1
      40     1393     1392 1
      41     3018     3019 1
      42     2046     2047 1
      43     2937     2938 1
      44     2208     2209 1
      45     2856     2857 1
      46     1575     1577 1
      47     1042     1043 1
      48     3126     3127 1
      49     2019     2020 1
      50     1776     1777 1
      51      934      935 1
      52     2373     2375 1
      53     3102     3104 1
      54     3291     3293 1
      55     2454     2456 1
      56     2184     2186 1
      57     3372     3374 1
      58     2103     2105 1
      59     1941     1943 1
      60     2535     2537 1
      61     2346     2348 1
      62      523      524 1
      63     2592     2593 1
      64      467      468 1
      65       74       75 1
      66     3096     3097 1
      67      699      700 1
      68     2931     2933 1
      69      586      587 1
      70      826      828 1
      71      397      398 1
      72     2889     2891 1
      73      956      954 1
      74      740      741 1
      75     3165     3166 1
      76     1755     1756 1
      77     1014     1015 1
      78     1635     1636 1
      79     2895     2897 1
      80     2439     2440 1
      81     2358     2359 1
      82     3033     3034 1
      83     1872     1873 1
      84     2952     2953 1
      85     2520     2521 1
      86     3195     3196 1
      87     2790     2791 1
      88       68       69 1
      89     3276     3277 1
      90      339      341 1
      91     1728     1730 1
      92     1560     1562 1
      93     2478     2480 1
      94      329      330 1
      95     1830     1832 1
      96     1680     1682 1
      97     1911     1913 1
      98     2640     2642 1
      99     2559     2561 1
     100     2748     2750 1
     101      880      881 1
     102     1020     1021 1
     103      235      236 1
     104     1800     1801 1
     105     1962     1963 1
     106     1557     1558 1
     107     2880     2881 1
     108     2718     2719 1
     109     1677     1678 1
     110     1019     1018 1
     111     1435     1436 1
     112     3306     3307 1
     113     2685     2686 1
     114     2766     2767 1
     115      612      613 1
     116     2604     2605 1
     117     1848     1849 1
     118     3063     3064 1
     119     3144     3145 1
     120      362      363 1
     121     1061     1064 1
     122      243      244 1
     123      479      480 1
     124      485      486 1
     125      421      422 1
     126     2880     2882 1
     127     1800     1802 1
     128     2718     2720 1
     129     1557     1559 1
     130     1962     1964 1
     131      224      225 1
     132      332      333 1
     133     1318     1320 1
     134     1677     1679 1
     135      868      869 1
     136      979      980 1
     137      100      101 1
     138     1087     1088 1
     139     1423     1424 1
     140      548      550 1
     141      675      674 1
     142     3018     3020 1
     143     1539     1541 1
     144     1659     1661 1
     145     1491     1493 1
     146      510      512 1
     147      763      764 1
     148     1351     1352 1
     149     1218     1219 1
     150     1212     1213 1
     151      592      593 1
     152     1614     1615 1
     153     1662     1663 1
     154     1482     1483 1
     155      886      887 1
     156     1494     1495 1
     157      889      890 1
     158     1542     1543 1
     159     3351     3352 1
     160     1893     1894 1
     161     2514     2515 1
     162      222      221 1
     163     2973     2974 1
     164     3216     3217 1
     165     3054     3055 1
     166     2811     2812 1
     167     3030     3032 1
     168     1019     1020 1
     169      191      192 1
     170      724      725 1
     171      244      245 1
     172      222      223 1
     173      330      331 1
     174     1213     1214 1
     175     1352     1353 1
     176     1527     1529 1
     177     1458     1459 1
     178     1066     1067 1
     179     1893     1895 1
     180     2514     2516 1
     181      905      904 1
     182     3351     3353 1
     183     2973     2975 1
     184     3216     3218 1
     185     3054     3056 1
     186     2811     2813 1
     187     1238     1239 1
     188      380      382 1
     189     2733     2734 1
     190      791      794 1
     191     3243     3245 1
     192      711      712 1
     193      576      577 1
     194     1737     1738 1
     195       62       63 1
     196      933      934 1
     197     1340     1341 1
     198      637      638 1
     199      628      629 1
     200      786      787 1
     201      957      958 1
     202      445      446 1
     203      126      127 1
     204     1290     1291 1
     205     1401     1402 1
     206     1413     1414 1
     207     1051     1052 1
     208      720      721 1
     209      732      733 1
     210       17       18 1
     211       29       30 1
     212       32       33 1
     213       95       96 1
     214      920      919 1
     215      974      975 1
     216      824      803 1
     217       42       43 1
     218     1441     1442 1
     219     1447     1448 1
     220       14       15 1
     221     1101     1102 1
     222      760      761 1
     223      835      836 1
     224     2052     2054 1
     225      551      550 1
     226      878      857 1
     227      986      965 1
     228      250      229 1
     229     1105     1104 1
     230      304      283 1
     231      852      855 1
     232     2127     2128 1
     233     1264     1266 1
     234     1290     1289 1
     235      126      125 1
     236      167      168 1
     237     3204     3206 1
     238     1125     1126 1
     239     1234     1233 1
     240     1127     1128 1
     241      981      980 1
     242     1372     1373 1
     243     1521     1523 1
     244     1617     1619 1
     245     1031     1032 1
     246      929      930 1
     247     2682     2684 1
     248     1145     1146 1
     249     1845     1847 1
     250     3060     3062 1
     251     1142     1143 1
     252     2763     2765 1
     253     3141     3143 1
     254      818      819 1
     255     3303     3305 1
     256     2601     2603 1
     257     1596     1598 1
     258      890      891 1
     259      795      796 1
     260     1059     1060 1
     261     1400     1401 1
     262      336      337 1
     263      620      621 1
     264     1479     1480 1
     265      850      851 1
     266     1328     1329 1
     267      309      310 1
     268     1313     1312 1
     269     1037     1038 1
     270      343      342 1
     271      111      112 1
     272     1503     1504 1
     273     1402     1403 1
     274      368      369 1
     275      393      394 1
     276       56       58 1
     277      214      215 1
     278     1064     1065 1
     279      964      965 1
     280     1029     1030 1
     281     1385     1386 1
     282      807      808 1
     283     1035     1036 1
     284      810      811 1
     285     1280     1281 1
     286     1044     1042 1
     287     1587     1589 1
     288     1707     1709 1
     289      149      148 1
     290      161      160 1
     291      314      315 1
     292      472      473 1
     293     1040     1041 1
     294      838      839 1
     295      837      838 1
     296      768      769 1
     297     1223     1224 1
     298      945      946 1
     299     1344     1345 1
     300     1779     1780 1
     301      598      599 1
     302      603      604 1
     303      805      806 1
     304     1226     1228 1
     305      221      220 1
     306      883      882 1
     307      492      493 1
     308      495      496 1
     309       40       41 1
     310     1105     1106 1
     311     2082     2083 1
     312      751      753 1
     313     2163     2164 1
     314      651      652 1
     315     2001     2002 1
     316     3000     3001 1
     317     2919     2920 1
     318       90       91 1
     319     2706     2707 1
     320     2949     2950 1
     321     2139     2140 1
     322     2301     2302 1
     323     3354     3355 1
     324     2517     2518 1
     325     3030     3031 1
     326     2868     2869 1
     327     2625     2626 1
     328     2688     2689 1
     329     3309     3310 1
     330     2607     2608 1
     331     2769     2770 1
     332     3066     3067 1
     333     1851     1852 1
     334     3147     3148 1
     335       14       13 1
     336     1956     1958 1
     337     2145     2147 1
     338      417      418 1
     339     3000     3002 1
     340     2919     2921 1
     341     2082     2084 1
     342     2163     2165 1
     343     2001     2003 1
     344     2241     2242 1
     345     2430     2431 1
     346     3240     3241 1
     347     2835     2836 1
     348     2673     2674 1
     349      316      315 1
     350     2322     2323 1
     351      682      683 1
     352      694      695 1
     353     2403     2404 1
     354      536      537 1
     355     1242     1244 1
     356      385      386 1
     357      339      340 1
     358      271      274 1
     359      855      856 1
     360      570      571 1
     361     1460     1461 1
     362      702      703 1
     363     1466     1467 1
     364      176      175 1
     365     2688     2690 1
     366     2607     2609 1
     367     3066     3068 1
     368     2769     2771 1
     369     3147     3149 1
     370      878      879 1
     371     2232     2234 1
     372     1851     1853 1
     373     3309     3311 1
     374        6        7 1
     375      658      660 1
     376     1752     1753 1
     377     1632     1633 1
     378     3204     3205 1
     379     2874     2876 1
     380     2430     2432 1
     381     3240     3242 1
     382      138      139 1
     383     2835     2837 1
     384     2673     2675 1
     385     2322     2324 1
     386     2712     2714 1
     387     1590     1592 1
     388      619      618 1
     389     1057     1058 1
     390     2808     2810 1
     391     2046     2048 1
     392      602      603 1
     393      693      694 1
     394     1710     1712 1
     395     1142     1141 1
     396     1040     1019 1
     397     1743     1745 1
     398     1623     1625 1
     399      748      749 1
     400      255      256 1
     401      369      370 1
     402     2670     2672 1
     403     2589     2591 1
     404      514      515 1
     405      520      521 1
     406      258      259 1
     407      526      527 1
     408     2427     2429 1
     409      372      373 1
     410      559      560 1
     411      389      390 1
     412      455      456 1
     413       77       78 1
     414     2097     2098 1
     415      847      848 1
     416      994      993 1
     417      278      280 1
     418      772      774 1
     419     3078     3080 1
     420     2565     2567 1
     421      524      525 1
     422      565      566 1
     423     2448     2450 1
     424     1869     1871 1
     425     2220     2222 1
     426      586      588 1
     427     1118     1115 1
     428      242      241 1
     429      304      305 1
     430     1338     1339 1
     431     1584     1586 1
     432     2775     2777 1
     433     2871     2873 1
     434     1953     1955 1
     435     1704     1706 1
     436     2694     2696 1
     437     1656     1658 1
     438     2709     2711 1
     439     2613     2615 1
     440     1857     1859 1
     441     1791     1793 1
     442      642      643 1
     443      278      281 1
     444     1117     1118 1
     445     2043     2044 1
     446     2286     2287 1
     447     2583     2584 1
     448      764      765 1
     449     1219     1220 1
     450     1216     1217 1
     451      761      762 1
     452      836      837 1
     453     1187     1186 1
     454      440      441 1
     455     1316     1317 1
     456     3252     3253 1
     457     2253     2254 1
     458     3171     3172 1
     459      533      534 1
     460      456      457 1
     461      328      327 1
     462     3357     3358 1
     463     2433     2435 1
     464     1049     1050 1
     465      341      342 1
     466     1367     1368 1
     467       79       80 1
     468      398      399 1
     469       73       74 1
     470       82       83 1
     471      430      431 1
     472      439      440 1
     473     2286     2288 1
     474     2583     2585 1
     475     2205     2207 1
     476      322      323 1
     477     1083     1084 1
     478     1315     1316 1
     479     2043     2045 1
     480     2124     2126 1
     481     2421     2423 1
     482      728      729 1
     483     1078     1079 1
     484     1090     1091 1
     485      865      866 1
     486      563      564 1
     487     1004     1003 1
     488      893      892 1
     489       90       92 1
     490     1755     1757 1
     491      863      864 1
     492      843      842 1
     493     1014     1016 1
     494     1305     1306 1
     495      450      451 1
     496      782      783 1
     497     1635     1637 1
     498      416      417 1
     499     1340     1342 1
     500      597      598 1
     501      211      210 1
     502      792      794 1
     503     1113     1114 1
     504     1098     1099 1
     505     1107     1108 1
     506      888      889 1
     507      139      140 1
     508      133      134 1
     509     1421     1422 1
     510     1342     1343 1
     511     2022     2023 1
     512      589      590 1
     513      358      337 1
     514      683      684 1
     515       38       36 1
     516     1470     1471 1
     517       69       71 1
     518     2826     2828 1
     519       52       53 1
     520      883      884 1
     521     2460     2461 1
     522     2541     2542 1
     523     2352     2353 1
     524     1979     1977 1
     525     3108     3109 1
     526     3297     3298 1
     527     3378     3379 1
     528      984      985 1
     529     2232     2233 1
     530     2109     2110 1
     531     1349     1348 1
     532     1092     1091 1
     533     1366     1367 1
     534      136      135 1
     535     1300     1299 1
     536     2808     2809 1
     537     1959     1960 1
     538     2121     2122 1
     539     2877     2878 1
     540     2715     2716 1
     541     2202     2203 1
     542     2283     2284 1
     543     1797     1798 1
     544     2040     2041 1
     545     3120     3121 1
     546      749      750 1
     547      449      450 1
     548     2460     2462 1
     549     2352     2354 1
     550     3108     3110 1
     551     3297     3299 1
     552     3378     3380 1
     553     2190     2192 1
     554      449      448 1
     555     2109     2111 1
     556     2541     2543 1
     557     1947     1949 1
     558       57       58 1
     559      157      158 1
     560     1389     1390 1
     561      528      529 1
     562      750      751 1
     563      825      826 1
     564     2877     2879 1
     565     2715     2717 1
     566     1959     1961 1
     567      547      548 1
     568     2202     2204 1
     569     2283     2285 1
     570     2121     2123 1
     571     2040     2042 1
     572      988      990 1
     573     3120     3122 1
     574     1192     1193 1
     575     2787     2788 1
     576      653      654 1
     577     1140     1141 1
     578      813      814 1
     579      150      151 1
     580     1420     1421 1
     581     1914     1915 1
     582     2643     2644 1
     583     2751     2752 1
     584     1833     1834 1
     585     2967     2969 1
     586     1758     1760 1
     587     1638     1640 1
     588      726      727 1
     589     2481     2482 1
     590       92       93 1
     591      729      730 1
     592       36       37 1
     593     1415     1414 1
     594      712      713 1
     595      577      578 1
     596      183      184 1
     597      366      367 1
     598      673      674 1
     599     1045     1046 1
     600      940      941 1
     601     2400     2401 1
     602     1416     1418 1
     603     1068     1071 1
     604     1941     1942 1
     605      506      508 1
     606     1515     1516 1
     607     2922     2924 1
     608     3003     3005 1
     609     2004     2006 1
     610      370      371 1
     611     2667     2669 1
     612     1329     1330 1
     613     1459     1460 1
     614     2829     2831 1
     615     3234     3236 1
     616     2424     2426 1
     617     2586     2588 1
     618     2316     2318 1
     619     2397     2399 1
     620      251      252 1
     621     1384     1385 1
     622     2235     2237 1
     623     1128     1129 1
     624      113      114 1
     625       47       48 1
     626       44       45 1
     627     1443     1444 1
     628      896      897 1
     629     2961     2962 1
     630     2799     2800 1
     631     2367     2368 1
     632     3042     3043 1
     633     2529     2530 1
     634     1725     1726 1
     635     1881     1882 1
     636       35       36 1
     637      630      629 1
     638     2448     2449 1
     639      778      779 1
     640     2562     2564 1
     641      164      166 1
     642     1118     1119 1
     643     2739     2741 1
     644     2130     2132 1
     645      852      853 1
     646      374      375 1
     647     1767     1768 1
     648     1527     1528 1
     649     1647     1648 1
     650      236      237 1
     651      371      372 1
     652      347      348 1
     653      484      485 1
     654     3288     3290 1
     655     2826     2827 1
     656      646      647 1
     657     2169     2171 1
     658      105      106 1
     659      789      790 1
     660     2799     2801 1
     661     1725     1727 1
     662     3366     3368 1
     663     2529     2531 1
     664     1881     1883 1
     665     2961     2963 1
     666     3042     3044 1
     667      418      419 1
     668     2367     2369 1
     669     1129     1131 1
     670     1081     1080 1
     671       15       17 1
     672       26       27 1
     673     1031     1030 1
     674      216      215 1
     675     2337     2339 1
     676      667      668 1
     677      611      612 1
     678     1162     1163 1
     679     1159     1160 1
     680      759      760 1
     681      834      835 1
     682      206      207 1
     683      434      436 1
     684      698      696 1
     685     1716     1717 1
     686      630      631 1
     687     1172     1173 1
     688      994      995 1
     689      298      299 1
     690      648      649 1
     691     1425     1426 1
     692     1236     1237 1
     693     2706     2708 1
     694     2166     2167 1
     695     3192     3194 1
     696     2571     2572 1
     697     2922     2923 1
     698     2490     2491 1
     699     2004     2005 1
     700     2085     2086 1
     701     2652     2653 1
     702      358      359 1
     703      122      123 1
     704      353      352 1
     705     2175     2176 1
     706     3390     3391 1
     707     1932     1933 1
     708     2472     2473 1
     709     3093     3094 1
     710      366      365 1
     711     2553     2554 1
     712     2634     2635 1
     713     2094     2095 1
     714     2337     2338 1
     715      941      942 1
     716     1160     1161 1
     717     2064     2066 1
     718      420      421 1
     719     2700     2701 1
     720     3105     3106 1
     721     2349     2350 1
     722     2781     2782 1
     723     2187     2188 1
     724     2619     2620 1
     725     1944     1945 1
     726     1863     1864 1
     727      956      953 1
     728     1241     1242 1
     729     2412     2413 1
     730      198      199 1
     731      641      642 1
     732     2175     2177 1
     733     3390     3392 1
     734     2094     2096 1
     735     2472     2474 1
     736     1932     1934 1
     737     2553     2555 1
     738     1096     1098 1
     739     2634     2636 1
     740      655      656 1
     741      744      746 1
     742       76       77 1
     743     2997     2999 1
     744      408      409 1
     745      647      648 1
     746      972      973 1
     747      297      298 1
     748       93       94 1
     749      861      862 1
     750     2031     2032 1
     751     2502     2504 1
     752       61       62 1
     753     1252     1253 1
     754      915      916 1
     755     1038     1039 1
     756     2700     2702 1
     757     2619     2621 1
     758     2187     2189 1
     759     3105     3107 1
     760     2349     2351 1
     761     3333     3335 1
     762     1902     1904 1
     763     2781     2783 1
     764     1734     1736 1
     765     1821     1823 1
     766     2289     2291 1
     767       60       59 1
     768     1211     1210 1
     769     3261     3262 1
     770     3180     3181 1
     771     2883     2884 1
     772     1965     1966 1
     773     2721     2722 1
     774      960      962 1
     775      858      859 1
     776     2262     2263 1
     777     1803     1804 1
     778       51       52 1
     779     1806     1808 1
     780     1968     1970 1
     781     2886     2888 1
     782     1271     1272 1
     783     2724     2726 1
     784     2265     2267 1
     785     3264     3266 1
     786     3183     3185 1
     787     2736     2738 1
     788     3210     3211 1
     789      601      602 1
     790      744      747 1
     791      458      459 1
     792     1063     1064 1
     793     1269     1270 1
     794      657      658 1
     795     1298     1299 1
     796     1683     1684 1
     797     1563     1564 1
     798      906      907 1
     799     3087     3088 1
     800     1095     1096 1
     801     2628     2629 1
     802     3384     3385 1
     803     2547     2548 1
     804     2466     2467 1
     805      772      773 1
     806     2331     2332 1
     807     1926     1927 1
     808     2169     2170 1
     809       69       70 1
     810      259      260 1
     811      575      576 1
     812      911      912 1
     813      604      606 1
     814       99       98 1
     815     1242     1243 1
     816     1752     1754 1
     817     1632     1634 1
     818     2196     2198 1
     819     2034     2036 1
     820     2115     2117 1
     821     2574     2576 1
     822     2277     2279 1
     823     2817     2819 1
     824     2655     2657 1
     825     2412     2414 1
     826     3114     3116 1
     827      483      484 1
     828     1009     1010 1
     829      901      902 1
     830      228      229 1
     831     1268     1267 1
     832      833      834 1
     833     1313     1314 1
     834     1481     1479 1
     835      916      917 1
     836     1036     1037 1
     837      925      926 1
     838     2955     2956 1
     839     2523     2524 1
     840     1875     1876 1
     841     2442     2443 1
     842     2361     2362 1
     843     3036     3037 1
     844     2793     2794 1
     845     3279     3280 1
     846     3360     3361 1
     847     3198     3199 1
     848      624      625 1
     849      293      294 1
     850       99      100 1
     851      867      868 1
     852     1021     1023 1
     853      873      874 1
     854      680      682 1
     855       28       29 1
     856      973      974 1
     857      862      863 1
     858       94       95 1
     859      970      971 1
     860       31       32 1
     861     1449     1448 1
     862     1378     1380 1
     863     1288     1289 1
     864     2379     2381 1
     865      757      758 1
     866      851      852 1
     867      913      914 1
     868      564      565 1
     869      555      556 1
     870      291      290 1
     871     1548     1549 1
     872     1740     1741 1
     873     1668     1669 1
     874     1620     1621 1
     875     1566     1567 1
     876     1686     1687 1
     877     3081     3082 1
     878     3162     3163 1
     879     3324     3325 1
     880     1193     1194 1
     881     3219     3221 1
     882     2733     2735 1
     883     2166     2168 1
     884     2085     2087 1
     885        8       11 1
     886      489      490 1
     887      238      239 1
     888      123      124 1
     889      775      776 1
     890      446      447 1
     891     3081     3083 1
     892     3162     3164 1
     893     3324     3326 1
     894      624      626 1
     895     1234     1235 1
     896      677      678 1
     897      384      385 1
     898     2895     2896 1
     899      119      120 1
     900     1208     1210 1
     901     1469     1470 1
     902      738      740 1
     903     1569     1570 1
     904     1041     1042 1
     905     1689     1690 1
     906     1761     1762 1
     907     1641     1642 1
     908      880      882 1
     909      287      288 1
     910     2916     2918 1
     911      436      437 1
     912     1476     1478 1
     913      442      443 1
     914      202      201 1
     915     1387     1388 1
     916      858      857 1
     917      797      798 1
     918     2778     2779 1
     919     3129     3130 1
     920     2697     2698 1
     921     2685     2687 1
     922     2616     2617 1
     923     3051     3053 1
     924     2049     2050 1
     925     2211     2212 1
     926      638      639 1
     927     1088     1089 1
     928     3003     3004 1
     929     2748     2749 1
     930     1830     1831 1
     931     2559     2560 1
     932     1911     1912 1
     933      932      911 1
     934     2640     2641 1
     935     2478     2479 1
     936      375      376 1
     937      189      190 1
     938      114      115 1
     939       48       49 1
     940      186      187 1
     941     1444     1445 1
     942     1005     1006 1
     943       45       46 1
     944      990      991 1
     945     3093     3095 1
     946      734      736 1
     947      894      895 1
     948     1374     1375 1
     949     1605     1607 1
     950     1451     1452 1
     951     1000     1001 1
     952     1150     1152 1
     953      409      410 1
     954     2280     2282 1
     955     3219     3220 1
     956     1431     1432 1
     957     1239     1240 1
     958     1842     1844 1
     959     3168     3169 1
     960     3249     3250 1
     961     2760     2762 1
     962     2250     2251 1
     963     1369     1368 1
     964      510      511 1
     965      658      659 1
     966     1393     1394 1
     967      821      822 1
     968     2439     2441 1
     969     1872     1874 1
     970     1254     1255 1
     971     3033     3035 1
     972     2358     2360 1
     973     2952     2954 1
     974     3195     3197 1
     975     2790     2792 1
     976     3276     3278 1
     977     3357     3359 1
     978     1004     1005 1
     979      893      894 1
     980     1053     1054 1
     981      544      545 1
     982     2379     2380 1
     983     1010     1011 1
     984     1472     1470 1
     985      483      482 1
     986     1719     1720 1
     987     1068     1069 1
     988     1370     1371 1
     989      299      300 1
     990     2088     2090 1
     991     1306     1307 1
     992      927      928 1
     993      159      160 1
     994      147      148 1
     995      816      817 1
     996      198      200 1
     997      971      972 1
     998       20       21 1
     999      224      226 1
    1000      332      334 1
    1001      776      777 1
    1002     1515     1517 1
    1003      447      448 1
    1004      211      212 1
    1005      540      541 1
    1006      354      355 1
    1007     1008     1010 1
    1008      149      150 1
    1009      414      415 1
    1010     1506     1507 1
    1011      306      307 1
    1012      556      557 1
    1013      951      952 1
    1014      828      829 1
    1015      942      943 1
    1016     1164     1165 1
    1017     1044     1045 1
    1018      756      757 1
    1019     1155     1156 1
    1020      831      832 1
    1021      939      940 1
    1022      527      528 1
    1023      278      279 1
    1024     2955     2957 1
    1025     3360     3362 1
    1026     2535     2536 1
    1027      213      214 1
    1028      627      628 1
    1029     1178     1179 1
    1030      501      502 1
    1031      360      361 1
    1032     2217     2218 1
    1033     3027     3028 1
    1034     1454     1455 1
    1035     2865     2866 1
    1036      493      494 1
    1037     2946     2947 1
    1038     3135     3136 1
    1039     2028     2029 1
    1040     1785     1786 1
    1041      593      594 1
    1042     3117     3119 1
    1043      140      141 1
    1044      134      135 1
    1045     1506     1508 1
    1046     1422     1423 1
    1047     2436     2438 1
    1048      581      582 1
    1049      231      233 1
    1050     3051     3052 1
    1051      732      731 1
    1052     1163     1164 1
    1053     1794     1796 1
    1054     1983     1985 1
    1055     2520     2522 1
    1056     3027     3029 1
    1057     2055     2057 1
    1058     2946     2948 1
    1059     2136     2138 1
    1060     2865     2867 1
    1061     2160     2161 1
    1062     1998     1999 1
    1063     2217     2219 1
    1064     2028     2030 1
    1065     2916     2917 1
    1066      685      686 1
    1067      688      689 1
    1068     2079     2080 1
    1069     2997     2998 1
    1070      151      152 1
    1071     1322     1323 1
    1072      615      616 1
    1073      276      277 1
    1074     2106     2108 1
    1075     1842     1843 1
    1076      170      171 1
    1077     1333     1334 1
    1078     1336     1337 1
    1079     1463     1464 1
    1080      566      567 1
    1081     1052     1053 1
    1082      194      195 1
    1083      146      147 1
    1084     1605     1606 1
    1085     1201     1202 1
    1086     1788     1789 1
    1087      975      976 1
    1088     1185     1186 1
    1089      319      320 1
    1090      404      403 1
    1091       96       97 1
    1092      496      497 1
    1093     2220     2221 1
    1094       21       22 1
    1095     1173     1174 1
    1096     2388     2390 1
    1097     2928     2930 1
    1098     3225     3227 1
    1099     1048     1049 1
    1100     2307     2309 1
    1101     2160     2162 1
    1102     1998     2000 1
    1103     2226     2228 1
    1104     1518     1520 1
    1105     3009     3011 1
    1106      690      691 1
    1107      751      752 1
    1108     1398     1400 1
    1109     1551     1553 1
    1110     1671     1673 1
    1111      824      825 1
    1112      571      572 1
    1113      264      265 1
    1114     1599     1601 1
    1115      574      575 1
    1116      261      262 1
    1117       12       13 1
    1118      642      644 1
    1119       80       81 1
    1120      464      465 1
    1121      741      742 1
    1122      386      388 1
    1123      512      513 1
    1124      654      655 1
    1125     2577     2579 1
    1126      137      138 1
    1127      798      799 1
    1128     1122     1123 1
    1129     1611     1612 1
    1130     3057     3059 1
    1131     2031     2033 1
    1132     2409     2411 1
    1133     3045     3047 1
    1134     3342     3344 1
    1135     2964     2966 1
    1136     1884     1886 1
    1137      116      118 1
    1138      386      389 1
    1139     2802     2804 1
    1140     2505     2507 1
    1141     3207     3209 1
    1142     1692     1694 1
    1143     1572     1574 1
    1144     1011     1012 1
    1145      474      475 1
    1146      328      325 1
    1147      958      959 1
    1148      770      749 1
    1149     2037     2038 1
    1150     3117     3118 1
    1151     2280     2281 1
    1152       84       85 1
    1153     2118     2119 1
    1154     2199     2200 1
    1155     2415     2416 1
    1156     2577     2578 1
    1157     2820     2821 1
    1158     2658     2659 1
    1159      665      666 1
    1160       72       73 1
    1161     1863     1865 1
    1162      263      264 1
    1163      260      261 1
    1164     1364     1365 1
    1165     2055     2056 1
    1166      234      235 1
    1167      488      489 1
    1168     1075     1077 1
    1169      457      458 1
    1170      454      455 1
    1171     1309     1310 1
    1172      870      871 1
    1173      780      781 1
    1174      554      555 1
    1175       25       24 1
    1176      976      977 1
    1177       97       98 1
    1178      103      104 1
    1179      871      872 1
    1180      132      133 1
    1181     1563     1565 1
    1182      906      908 1
    1183     1683     1685 1
    1184      392      391 1
    1185      320      321 1
    1186      537      538 1
    1187      422      423 1
    1188      662      664 1
    1189      897      898 1
    1190      917      918 1
    1191     1418     1419 1
    1192     1215     1216 1
    1193      538      539 1
    1194      841      842 1
    1195      937      938 1
    1196     1354     1355 1
    1197       67       68 1
    1198     1362     1363 1
    1199      433      434 1
    1200     2106     2107 1
    1201     1524     1525 1
    1202     1644     1645 1
    1203     1764     1765 1
    1204      934      936 1
    1205      169      168 1
    1206      191      190 1
    1207      582      583 1
    1208      412      413 1
    1209      513      514 1
    1210     1456     1457 1
    1211     3012     3013 1
    1212     3228     3229 1
    1213     2310     2311 1
    1214     2391     2392 1
    1215     2229     2230 1
    1216     2013     2014 1
    1217     2850     2851 1
    1218     2931     2932 1
    1219     1346     1347 1
    1220     1343     1344 1
    1221     1321     1322 1
    1222     1947     1948 1
    1223     1325     1326 1
    1224      820      819 1
    1225      820      821 1
    1226     1033     1034 1
    1227     1132     1133 1
    1228     1386     1387 1
    1229     1071     1072 1
    1230     1545     1546 1
    1231     1713     1714 1
    1232     1665     1666 1
    1233     1497     1498 1
    1234     3228     3230 1
    1235     3012     3014 1
    1236     2310     2312 1
    1237     2391     2393 1
    1238     1149     1150 1
    1239     2229     2231 1
    1240      859      861 1
    1241      296      297 1
    1242     2013     2015 1
    1243      294      295 1
    1244      650      651 1
    1245       27       28 1
    1246     1089     1090 1
    1247      402      403 1
    1248      864      865 1
    1249      644      645 1
    1250     1397     1398 1
    1251     1026     1027 1
    1252     1391     1392 1
    1253      129      130 1
    1254     1266     1267 1
    1255     1293     1294 1
    1256     1410     1411 1
    1257     1454     1456 1
    1258     2157     2158 1
    1259     2076     2077 1
    1260      337      338 1
    1261     1662     1664 1
    1262     1614     1616 1
    1263      967      968 1
    1264     1995     1996 1
    1265     1013     1014 1
    1266     1494     1496 1
    1267     1085     1086 1
    1268     1542     1544 1
    1269     2694     2695 1
    1270     2613     2614 1
    1271     1857     1858 1
    1272     2775     2776 1
    1273      594      595 1
    1274     1394     1396 1
    1275     1224     1225 1
    1276      617      618 1
    1277      946      947 1
    1278     2133     2135 1
    1279      661      662 1
    1280     2238     2239 1
    1281      955      956 1
    1282      689      690 1
    1283     1785     1787 1
    1284      795      794 1
    1285      991      992 1
    1286       12       11 1
    1287     2951     2949 1
    1288     2118     2120 1
    1289       15       16 1
    1290     1731     1732 1
    1291     2058     2060 1
    1292     3222     3223 1
    1293     2385     2386 1
    1294     2925     2926 1
    1295     2844     2845 1
    1296      390      391 1
    1297     2223     2224 1
    1298     2304     2305 1
    1299     3006     3007 1
    1300     2007     2008 1
    1301      846      848 1
    1302      187      188 1
    1303     1737     1739 1
    1304       62       64 1
    1305     1251     1252 1
    1306      923      924 1
    1307     2154     2156 1
    1308      926      927 1
    1309      812      813 1
    1310     2073     2075 1
    1311     1014     1017 1
    1312      155      156 1
    1313      815      816 1
    1314     2991     2993 1
    1315     1992     1994 1
    1316     2910     2912 1
    1317     1452     1453 1
    1318       41       42 1
    1319     1440     1441 1
    1320       53       54 1
    1321     1106     1107 1
    1322      884      885 1
    1323      306      308 1
    1324     1935     1936 1
    1325     2340     2341 1
    1326     2637     2638 1
    1327     1280     1282 1
    1328     2178     2179 1
    1329      718      720 1
    1330     1416     1417 1
    1331     2556     2557 1
    1332     2403     2405 1
    1333     2475     2476 1
    1334      928      929 1
    1335     1383     1384 1
    1336      817      818 1
    1337      468      469 1
    1338     1279     1278 1
    1339      204      203 1
    1340      609      608 1
    1341       62       65 1
    1342      154      155 1
    1343      163      166 1
    1344      269      270 1
    1345     3015     3017 1
    1346      331      332 1
    1347      285      286 1
    1348      404      405 1
    1349     1869     1870 1
    1350      876      877 1
    1351     2475     2477 1
    1352     2556     2558 1
    1353     1935     1937 1
    1354     2178     2180 1
    1355     3096     3098 1
    1356     2340     2342 1
    1357     2637     2639 1
    1358     2097     2099 1
    1359      540      539 1
    1360      272      274 1
    1361       23       24 1
    1362      438      439 1
    1363     1314     1315 1
    1364      543      544 1
    1365      208      209 1
    1366      613      614 1
    1367      224      227 1
    1368      332      335 1
    1369      531      532 1
    1370      311      312 1
    1371      562      561 1
    1372      829      830 1
    1373      535      536 1
    1374      948      949 1
    1375      765      766 1
    1376     1220     1221 1
    1377     1167     1168 1
    1378      412      391 1
    1379      653      652 1
    1380     1500     1501 1
    1381      392      393 1
    1382     1202     1203 1
    1383      301      302 1
    1384      585      586 1
    1385      599      600 1
    1386      596      597 1
    1387     1286     1287 1
    1388     2976     2978 1
    1389      268      269 1
    1390      704      705 1
    1391     1284     1285 1
    1392       34       13 1
    1393     1905     1906 1
    1394     1824     1825 1
    1395     2742     2743 1
    1396     1394     1395 1
    1397     1356     1357 1
    1398     2190     2191 1
    1399     2133     2134 1
    1400     2457     2458 1
    1401     2538     2539 1
    1402     1890     1891 1
    1403     2376     2377 1
    1404     2511     2512 1
    1405     3348     3349 1
    1406     3294     3295 1
    1407     3375     3376 1
    1408     1917     1918 1
    1409     1836     1837 1
    1410     1235     1236 1
    1411      671      672 1
    1412      462      463 1
    1413      413      414 1
    1414      465      466 1
    1415      305      306 1
    1416     1905     1907 1
    1417     1824     1826 1
    1418     2742     2744 1
    1419      967      969 1
    1420      395      396 1
    1421      849      850 1
    1422     1512     1513 1
    1423      718      719 1
    1424     3366     3367 1
    1425     1072     1073 1
    1426     2457     2459 1
    1427     1890     1892 1
    1428     3306     3308 1
    1429     2376     2378 1
    1430     2538     2540 1
    1431     3144     3146 1
    1432     3348     3350 1
    1433     2766     2768 1
    1434     3375     3377 1
    1435     2604     2606 1
    1436     2127     2129 1
    1437     1174     1175 1
    1438     1082     1083 1
    1439      687      688 1
    1440      872      873 1
    1441      809      808 1
    1442     3234     3235 1
    1443     2424     2425 1
    1444     2316     2317 1
    1445     2667     2668 1
    1446     2397     2398 1
    1447     1503     1505 1
    1448     2829     2830 1
    1449     2235     2236 1
    1450      966      967 1
    1451     2586     2587 1
    1452     1833     1835 1
    1453     2643     2645 1
    1454     2751     2753 1
    1455      170      173 1
    1456     1914     1916 1
    1457     2481     2483 1
    1458      360      362 1
    1459      517      518 1
    1460      228      227 1
    1461      722      721 1
    1462      715      716 1
    1463      328      329 1
    1464     1111     1112 1
    1465     3015     3016 1
    1466     2727     2729 1
    1467     3327     3328 1
    1468     2976     2977 1
    1469      170      172 1
    1470     2814     2815 1
    1471      128      129 1
    1472      131      132 1
    1473     1292     1293 1
    1474     1017     1018 1
    1475     2493     2494 1
    1476     3330     3331 1
    1477     1899     1900 1
    1478      328      326 1
    1479     1818     1819 1
    1480     2736     2737 1
    1481      144      145 1
    1482      870      869 1
    1483      451      452 1
    1484      519      520 1
    1485     3369     3371 1
    1486     2451     2453 1
    1487     3099     3101 1
    1488     2181     2183 1
    1489     2532     2534 1
    1490     2100     2102 1
    1491     1938     1940 1
    1492      116      119 1
    1493     2370     2372 1
    1494     2343     2345 1
    1495     1406     1407 1
    1496     1056     1057 1
    1497     3177     3178 1
    1498     3258     3259 1
    1499      434      435 1
    1500      944      945 1
    1501     1222     1223 1
    1502     1157     1158 1
    1503     2259     2260 1
    1504      429      430 1
    1505      142      121 1
    1506     1144     1145 1
    1507     1135     1136 1
    1508      922      923 1
    1509     3387     3388 1
    1510     2334     2335 1
    1511     2631     2632 1
    1512      542      543 1
    1513     2469     2470 1
    1514     2550     2551 1
    1515     3090     3091 1
    1516      472      471 1
    1517     1929     1930 1
    1518     2091     2092 1
    1519      201      200 1
    1520      220      219 1
    1521     1191     1192 1
    1522      427      428 1
    1523     3258     3260 1
    1524     3177     3179 1
    1525     2259     2261 1
    1526      106      107 1
    1527       25       26 1
    1528      874      875 1
    1529     1081     1082 1
    1530     1407     1408 1
    1531      798      800 1
    1532     1122     1124 1
    1533      983      984 1
    1534     1611     1613 1
    1535     1207     1208 1
    1536      588      589 1
    1537     1360     1362 1
    1538     1430     1431 1
    1539     1424     1425 1
    1540      127      128 1
    1541     1291     1292 1
    1542     1345     1346 1
    1543      670      671 1
    1544     2253     2255 1
    1545      580      581 1
    1546      692      693 1
    1547     1593     1594 1
    1548      303      302 1
    1549     2664     2666 1
    1550     1445     1446 1
    1551     1099     1100 1
    1552     2598     2600 1
    1553     2679     2681 1
    1554     3138     3140 1
    1555      373      374 1
    1556     1427     1426 1
    1557     1375     1376 1
    1558      522      523 1
    1559     1462     1461 1
    1560     2901     2903 1
    1561     1310     1311 1
    1562     1256     1255 1
    1563     1240     1241 1
    1564      530      531 1
    1565      490      491 1
    1566      393      395 1
    1567     1324     1325 1
    1568      377      378 1
    1569      490      492 1
    1570      313      314 1
    1571      631      632 1
    1572     1473     1475 1
    1573     2805     2806 1
    1574     3237     3238 1
    1575     3048     3049 1
    1576     1887     1888 1
    1577     2319     2320 1
    1578     3021     3022 1
    1579     2508     2509 1
    1580     2859     2860 1
    1581     2940     2941 1
    1582      632      633 1
    1583     3063     3065 1
    1584     2805     2807 1
    1585     1836     1838 1
    1586      591      592 1
    1587     1450     1451 1
    1588      212      213 1
    1589     3075     3077 1
    1590     2850     2852 1
    1591      400      401 1
    1592     1196     1197 1
    1593      289      290 1
    1594     3285     3287 1
    1595     1896     1898 1
    1596      879      880 1
    1597     2979     2980 1
    1598     3354     3356 1
    1599     2490     2492 1
    1600     2517     2519 1
    1601     2898     2899 1
    1602     1980     1981 1
    1603     2061     2062 1
    1604     2142     2143 1
    1605      158      159 1
    1606      165      166 1
    1607     2466     2468 1
    1608     1326     1327 1
    1609     2628     2630 1
    1610     3087     3089 1
    1611     2547     2549 1
    1612     3384     3386 1
    1613     1025     1026 1
    1614     1390     1391 1
    1615     2724     2725 1
    1616     2331     2333 1
    1617      255      254 1
    1618     1103     1104 1
    1619       50       51 1
    1620     1119     1120 1
    1621     1412     1413 1
    1622     1409     1410 1
    1623      349      350 1
    1624     1050     1051 1
    1625      995      996 1
    1626      318      319 1
    1627     1301     1302 1
    1628     2181     2182 1
    1629      606      607 1
    1630     1270     1271 1
    1631     1575     1576 1
    1632     1695     1696 1
    1633      239      240 1
    1634      481      482 1
    1635      350      351 1
    1636      345      346 1
    1637     2664     2665 1
    1638     1436     1437 1
    1639     1926     1928 1
    1640       30       31 1
    1641     1023     1024 1
    1642     1137     1138 1
    1643     1261     1262 1
    1644       50       49 1
    1645     2754     2756 1
    1646     1484     1482 1
    1647     1177     1178 1
    1648     1731     1733 1
    1649     1356     1358 1
    1650      500      501 1
    1651      419      420 1
    1652      202      203 1
    1653      672      673 1
    1654      534      535 1
    1655      553      554 1
    1656     1156     1157 1
    1657      452      453 1
    1658     1350     1351 1
    1659      762      763 1
    1660     1217     1218 1
    1661      843      844 1
    1662     1226     1227 1
    1663     1211     1212 1
    1664     3345     3346 1
    1665     1158     1159 1
    1666       60       61 1
    1667      386      387 1
    1668     1129     1130 1
    1669     1067     1068 1
    1670     2298     2300 1
    1671      504      505 1
    1672     1181     1182 1
    1673     1184     1185 1
    1674     1974     1975 1
    1675     3270     3271 1
    1676     1812     1813 1
    1677     3189     3190 1
    1678     2892     2893 1
    1679     2271     2272 1
    1680     2730     2731 1
    1681     1295     1296 1
    1682     1488     1490 1
    1683     2247     2248 1
    1684     2841     2842 1
    1685     3084     3085 1
    1686     3246     3247 1
    1687     2598     2599 1
    1688     1896     1897 1
    1689     2328     2329 1
    1690     2409     2410 1
    1691     2679     2680 1
    1692     2436     2437 1
    1693      174      175 1
    1694     1369     1370 1
    1695        8       10 1
    1696     3201     3202 1
    1697     1878     1879 1
    1698     2958     2959 1
    1699     3039     3040 1
    1700     2796     2797 1
    1701     3336     3337 1
    1702      574      573 1
    1703     2499     2500 1
    1704      416      414 1
    1705     1812     1814 1
    1706     3189     3191 1
    1707     3270     3272 1
    1708     1974     1976 1
    1709     2730     2732 1
    1710     3024     3025 1
    1711     2943     2944 1
    1712     2862     2863 1
    1713     1782     1783 1
    1714     2271     2273 1
    1715     2025     2026 1
    1716     3132     3133 1
    1717     2214     2215 1
    1718     2295     2296 1
    1719     2052     2053 1
    1720      267      268 1
    1721     1283     1284 1
    1722     1411     1412 1
    1723      714      715 1
    1724     1330     1331 1
    1725     1878     1880 1
    1726     3201     3203 1
    1727     3039     3041 1
    1728     2796     2798 1
    1729     3336     3338 1
    1730     2958     2960 1
    1731     2499     2501 1
    1732     2847     2849 1
    1733     2010     2012 1
    1734     2079     2081 1
    1735      399      400 1
    1736      300      301 1
    1737     1195     1196 1
    1738      288      289 1
    1739     3285     3286 1
    1740     1249     1250 1
    1741      924      925 1
    1742      156      157 1
    1743     2943     2945 1
    1744     2214     2216 1
    1745     3252     3254 1
    1746     3024     3026 1
    1747     2862     2864 1
    1748     1782     1784 1
    1749     3171     3173 1
    1750     2025     2027 1
    1751     3132     3134 1
    1752     1012     1013 1
    1753     1359     1360 1
    1754      626      627 1
    1755      143      144 1
    1756     1647     1649 1
    1757      852      854 1
    1758     1767     1769 1
    1759     1148     1149 1
    1760      706      707 1
    1761      703      704 1
    1762     2697     2699 1
    1763     2292     2294 1
    1764     2778     2780 1
    1765     2616     2618 1
    1766     1274     1275 1
    1767       88       89 1
    1768     3129     3131 1
    1769     2211     2213 1
    1770     2049     2051 1
    1771     1860     1862 1
    1772     2967     2968 1
    1773      461      462 1
    1774       83       84 1
    1775       71       72 1
    1776        1        4 1
    1777      558      559 1
    1778      518      519 1
    1779     1204     1206 1
    1780     1536     1538 1
    1781     2841     2843 1
    1782     3327     3329 1
    1783      115      116 1
    1784      262      263 1
    1785      713      714 1
    1786      184      185 1
    1787     1378     1379 1
    1788      525      526 1
    1789     1512     1514 1
    1790     3168     3170 1
    1791     3315     3317 1
    1792     3249     3251 1
    1793     3153     3155 1
    1794     2754     2755 1
    1795     2892     2894 1
    1796     3072     3074 1
    1797     2250     2252 1
    1798     1716     1718 1
    1799      189      188 1
    1800      709      708 1
    1801     1188     1190 1
    1802      480      481 1
    1803      793      794 1
    1804      486      487 1
    1805     1485     1486 1
    1806     1653     1654 1
    1807     2016     2017 1
    1808     2934     2935 1
    1809     1533     1534 1
    1810     2394     2395 1
    1811     2313     2314 1
    1812     1773     1774 1
    1813     3231     3232 1
    1814     1464     1465 1
    1815      273      274 1
    1816     2277     2278 1
    1817     2064     2065 1
    1818     2874     2875 1
    1819     2712     2713 1
    1820     2901     2902 1
    1821     1983     1984 1
    1822     2145     2146 1
    1823     1956     1957 1
    1824     2982     2983 1
    1825     1794     1795 1
    1826     2382     2383 1
    1827     2496     2498 1
    1828     2562     2563 1
    1829      579      580 1
    1830     1058     1059 1
    1831      245      246 1
    1832     1373     1374 1
    1833      475      476 1
    1834     2298     2299 1
    1835     2205     2206 1
    1836      774      775 1
    1837     1485     1487 1
    1838     2934     2936 1
    1839     2016     2018 1
    1840     1773     1775 1
    1841     1533     1535 1
    1842     2394     2396 1
    1843     3231     3233 1
    1844     1653     1655 1
    1845     2313     2315 1
    1846     2853     2855 1
    1847     1146     1147 1
    1848     1084     1085 1
    1849       19       20 1
    1850      551      552 1
    1851      982      983 1
    1852     1073     1074 1
    1853     1779     1781 1
    1854      425      426 1
    1855      428      429 1
    1856      205      206 1
    1857      669      670 1
    1858      616      617 1
    1859     1116     1118 1
    1860       39       40 1
    1861     1427     1428 1
    1862      754      755 1
    1863     1339     1340 1
    1864     1360     1361 1
    1865     1021     1022 1
    1866      695      696 1
    1867      144      146 1
    1868     1365     1366 1
    1869     1596     1597 1
    1870     1920     1921 1
    1871     2487     2488 1
    1872     2649     2650 1
    1873     2465     2463 1
    1874     1839     1840 1
    1875     2568     2569 1
    1876     2757     2758 1
    1877     1222     1221 1
    1878     1419     1420 1
    1879     1950     1952 1
    1880     2814     2816 1
    1881      364      365 1
    1882      710      711 1
    1883     1062     1064 1
    1884     1465     1466 1
    1885      733      734 1
    1886     2823     2824 1
    1887     3174     3175 1
    1888     3255     3256 1
    1889     2661     2662 1
    1890     2580     2581 1
    1891     2256     2257 1
    1892     2418     2419 1
    1893      477      478 1
    1894     1188     1189 1
    1895      755      756 1
    1896     2982     2984 1
    1897      784      785 1
    1898     1307     1308 1
    1899     2487     2489 1
    1900     1920     1922 1
    1901     2649     2651 1
    1902     1839     1841 1
    1903      443      444 1
    1904     2568     2570 1
    1905     2757     2759 1
    1906     1231     1232 1
    1907     1259     1260 1
    1908     1024     1025 1
    1909      700      701 1
    1910     1256     1257 1
    1911      665      664 1
    1912      899      902 1
    1913     1302     1304 1
    1914     1521     1522 1
    1915     1617     1618 1
    1916     3174     3176 1
    1917     2418     2420 1
    1918     2823     2825 1
    1919     2661     2663 1
    1920     3255     3257 1
    1921     2580     2582 1
    1922     2256     2258 1
    1923      291      292 1
    1924      405      406 1
    1925       18       19 1
    1926      166      167 1
    1927     1086     1087 1
    1928      956      957 1
    1929      856      857 1
    1930      822      823 1
    1931        3        4 1
    1932     1245     1246 1
    1933     2184     2185 1
    1934     3372     3373 1
    1935     3102     3103 1
    1936     2373     2374 1
    1937     2454     2455 1
    1938     1566     1568 1
    1939     3291     3292 1
    1940     2103     2104 1
    1941     3213     3215 1
    1942      104      105 1
    1943     1686     1688 1
    1944      977      978 1
    1945      283      284 1
    1946     1884     1885 1
    1947      116      117 1
    1948     3045     3046 1
    1949     2802     2803 1
    1950     3342     3343 1
    1951     2964     2965 1
    1952     3207     3208 1
    1953     2505     2506 1
    1954     1268     1269 1
    1955      468      470 1
    1956     2130     2131 1
    1957     3321     3323 1
    1958     2832     2834 1
    1959      960      963 1
    1960      506      507 1
    1961      997      998 1
    1962     1442     1443 1
    1963       43       44 1
    1964      196      175 1
    1965     1817     1815 1
    1966     3275     3273 1
    1967     3057     3058 1
    1968     1225     1226 1
    1969     2274     2276 1
    1970     1689     1691 1
    1971     1569     1571 1
    1972     1761     1763 1
    1973     1641     1643 1
    1974     1133     1134 1
    1975      920      921 1
    1976     3126     3128 1
    1977     2937     2939 1
    1978     2208     2210 1
    1979     2856     2858 1
    1980      152      153 1
    1981     2019     2021 1
    1982     1335     1334 1
    1983      906      909 1
    1984     1776     1778 1
    1985      804      805 1
    1986     1740     1742 1
    1987      548      549 1
    1988      998      999 1
    1989     1109     1110 1
    1990     1548     1550 1
    1991     1668     1670 1
    1992      743      744 1
    1993     1001     1002 1
    1994     1620     1622 1
    1995     1581     1582 1
    1996     3339     3340 1
    1997     1701     1702 1
    1998     2241     2243 1
    1999     1827     1828 1
    2000     1908     1909 1
    2001      839      840 1
    2002     2745     2746 1
    2003     2502     2503 1
    2004     1337     1338 1
    2005     1264     1265 1
    2006      381      382 1
    2007      739      740 1
    2008      931      930 1
    2009      811      812 1
    2010     3114     3115 1
    2011     2274     2275 1
    2012     2676     2678 1
    2013      285      287 1
    2014     1623     1624 1
    2015     1405     1406 1
    2016     1055     1056 1
    2017      242      243 1
    2018     1376     1377 1
    2019     1743     1744 1
    2020      353      354 1
    2021      246      247 1
    2022      476      477 1
    2023       65       66 1
    2024      478      479 1
    2025      499      500 1
    2026     1182     1183 1
    2027      110      112 1
    2028     1908     1910 1
    2029     3339     3341 1
    2030     1581     1583 1
    2031     1827     1829 1
    2032     2745     2747 1
    2033      557      558 1
    2034      805      807 1
    2035     1701     1703 1
    2036      472      474 1
    2037     1429     1430 1
    2038     1436     1438 1
    2039     1272     1273 1
    2040     1296     1297 1
    2041     2022     2024 1
    2042      785      786 1
    2043     1308     1309 1
    2044      444      445 1
    2045      317      318 1
    2046      891      892 1
    2047     1554     1555 1
    2048      338      339 1
    2049     1674     1675 1
    2050      383      384 1
    2051     1722     1723 1
    2052      676      677 1
    2053      949      950 1
    2054     1347     1348 1
    2055      753      754 1
    2056     1152     1153 1
    2057      541      542 1
    2058      770      771 1
    2059      636      637 1
    2060      252      253 1
    2061     1590     1591 1
    2062     1324     1322 1
    2063       76       75 1
    2064     1710     1711 1
    2065     2141     2139 1
    2066     1722     1724 1
    2067     1674     1676 1
    2068     1230     1231 1
    2069      266      265 1
    2070     3165     3167 1
    2071     3111     3112 1
    2072     1554     1556 1
    2073     2112     2113 1
    2074     1950     1951 1
    2075     2193     2194 1
    2076     2355     2356 1
    2077      178      177 1
    2078      572      573 1
    2079      121      122 1
    2080     3213     3214 1
    2081      142      143 1
    2082      112      109 1
    2083      176      177 1
    2084      343      344 1
    2085     1302     1303 1
    2086     2646     2647 1
    2087     2484     2485 1
    2088     3321     3322 1
    2089     3078     3079 1
    2090     2565     2566 1
    2091     3159     3160 1
    2092     1232     1233 1
    2093     1229     1230 1
    2094       78       79 1
    2095       81       82 1
    2096      438      437 1
    2097      120      121 1
    2098     1198     1199 1
    2099      981      982 1
    2100      848      849 1
    2101     1200     1199 1
    2102     1134     1135 1
    2103      153      154 1
    2104     1258     1259 1
    2105      921      922 1
    2106      737      740 1
    2107     2523     2525 1
    2108     2442     2444 1
    2109     2361     2363 1
    2110     2646     2648 1
    2111     2793     2795 1
    2112     2484     2486 1
    2113     1875     1877 1
    2114     3036     3038 1
    2115     3198     3200 1
    2116     3279     3281 1
    2117     3294     3296 1
    2118     2154     2155 1
    2119     2073     2074 1
    2120     1992     1993 1
    2121     1148     1127 1
    2122     2991     2992 1
    2123     1719     1721 1
    2124     1068     1070 1
    2125     2910     2911 1
    2126     2157     2159 1
    2127     1995     1997 1
    2128     2076     2078 1
    2129     2994     2996 1
    2130     2913     2915 1
    2131      382      383 1
    2132     3318     3320 1
    2133      521      522 1
    2134      623      624 1
    2135     1102     1103 1
    2136     1432     1434 1
    2137      645      646 1
    2138      944      943 1
    2139     1166     1165 1
    2140     3381     3383 1
    2141     1845     1846 1
    2142     3060     3061 1
    2143     2682     2683 1
    2144     2763     2764 1
    2145     2544     2546 1
    2146     1923     1925 1
    2147     3303     3304 1
    2148     3141     3142 1
    2149     2355     2357 1
    2150     2601     2602 1
    2151      181      182 1
    2152     2385     2387 1
    2153     3222     3224 1
    2154      335      336 1
    2155     2925     2927 1
    2156     2844     2846 1
    2157     2304     2306 1
    2158     2223     2225 1
    2159     3006     3008 1
    2160     2007     2009 1
    2161      247      248 1
    2162     1749     1750 1
    2163     1629     1630 1
    2164     2070     2071 1
    2165     1989     1990 1
    2166      220      217 1
    2167     1046     1047 1
    2168     2151     2152 1
    2169     2988     2989 1
    2170     2907     2908 1
    2171      423      424 1
    2172     1467     1468 1
    2173     3333     3334 1
    2174     1902     1903 1
    2175     1821     1822 1
    2176      459      460 1
    2177     1263     1264 1
    2178     2739     2740 1
    2179     2496     2497 1
    2180      379      382 1
    2181      182      183 1
    2182     2136     2137 1
    2183     3138     3139 1
    2184      783      784 1
    2185     2151     2153 1
    2186     1629     1631 1
    2187      725      726 1
    2188     2070     2072 1
    2189     1749     1751 1
    2190     2292     2293 1
    2191     2907     2909 1
    2192     1860     1861 1
    2193     1989     1991 1
    2194     2988     2990 1
    2195      918      919 1
    2196      743      742 1
    2197     1848     1850 1
    2198     1155     1154 1
    2199     2088     2089 1
    2200      900      902 1
    2201      136      137 1
    2202     1300     1301 1
    2203     1297     1298 1
    2204     1476     1477 1
    2205      173      174 1
    2206      717      718 1
    2207     1371     1372 1
    2208      552      553 1
    2209      509      510 1
    2210     1758     1759 1
    2211     1638     1639 1
    2212      734      735 1
    2213     2703     2704 1
    2214     2784     2785 1
    2215     2622     2623 1
    2216     2303     2301 1
    2217      292      293 1
    2218     1866     1867 1
    2219     2789     2787 1
    2220      910      911 1
    2221      803      804 1
    2222     1363     1364 1
    2223     2172     2174 1
    2224      730      731 1
    2225      727      728 1
    2226     1349     1350 1
    2227      767      768 1
    2228     1355     1356 1
    2229      938      939 1
    2230      787      788 1
    2231     2703     2705 1
    2232     2784     2786 1
    2233     2622     2624 1
    2234     1866     1868 1
    2235     1132     1131 1
    2236     1923     1924 1
    2237      845      848 1
    2238      410      411 1
    2239     1194     1195 1
    2240      777      778 1
    2241      316      317 1
    2242      634      635 1
    2243      722      723 1
    2244     1121     1122 1
    2245     2589     2590 1
    2246     1075     1076 1
    2247     2427     2428 1
    2248     3210     3212 1
    2249     3156     3157 1
    2250     2832     2833 1
    2251     3318     3319 1
    2252     3075     3076 1
    2253      101      102 1
    2254     2913     2914 1
    2255      687      686 1
    2256     3369     3370 1
    2257     2370     2371 1
    2258     2451     2452 1
    2259     3099     3100 1
    2260     2532     2533 1
    2261     1938     1939 1
    2262     2100     2101 1
    2263     2343     2344 1
    2264     3288     3289 1
    2265      363      364 1
    2266      568      569 1
    2267      999     1000 1
    2268     1002     1003 1
    2269       89       90 1
    2270      709      710 1
    2271      209      210 1
    2272      180      181 1
    2273      192      193 1
    2274      274      275 1
    2275     3123     3125 1
    2276       46       47 1
    2277     1439     1440 1
    2278     1187     1188 1
    2279      909      910 1
    2280     3300     3302 1
    2281     1953     1954 1
    2282     1791     1792 1
    2283     2709     2710 1
    2284     3084     3086 1
    2285      282      283 1
    2286     2871     2872 1
    2287        7        8 1
    2288      569      570 1
    2289      193      194 1
    2290     1665     1667 1
    2291     1545     1547 1
    2292     1593     1595 1
    2293     1497     1499 1
    2294     1713     1715 1
    2295     1208     1209 1
    2296     1468     1469 1
    2297     1028     1029 1
    2298     2493     2495 1
    2299     1899     1901 1
    2300     1034     1035 1
    2301     1122     1125 1
    2302     1248     1249 1
    2303      798      801 1
    2304      809      810 1
    2305     3330     3332 1
    2306     1818     1820 1
    2307      359      360 1
    2308     1644     1646 1
    2309      180      179 1
    2310      887      888 1
    2311     1446     1447 1
    2312      903      904 1
    2313     1524     1526 1
    2314      346      347 1
    2315     1764     1766 1
    2316     1100     1101 1
    2317     1112     1113 1
    2318       86       85 1
    2319     1055     1054 1
    2320      427      426 1
    2321      902      903 1
    2322     1383     1382 1
    2323     1027     1028 1
    2324     1380     1381 1
    2325      814      815 1
    2326     1138     1139 1
    2327      461      460 1
    2328      782      781 1
    2329      960      961 1
    2330      233      234 1
    2331      344      345 1
    2332      487      488 1
    2333      351      352 1
    2334     1473     1474 1
    2335      348      349 1
    2336      401      402 1
    2337     1284     1286 1
    2338     1200     1201 1
    2339      266      267 1
    2340     1092     1093 1
    2341     1032     1033 1
    2342      517      516 1
    2343      229      230 1
    2344     2511     2513 1
    2345     1180     1181 1
    2346      503      504 1
    2347     1183     1184 1
    2348        5        6 1
    2349      441      442 1
    2350      610      611 1
    2351     1317     1318 1
    2352      788      789 1
    2353      666      667 1
    2354      932      933 1
    2355     1204     1205 1
    2356      252      254 1
    2357     1698     1699 1
    2358     1578     1579 1
    2359     1650     1651 1
    2360     1770     1771 1
    2361     1530     1531 1
    2362      169      170 1
    2363      230      231 1
    2364       88       67 1
    2365     1602     1603 1
    2366      562      563 1
    2367     1153     1154 1
    2368      959      960 1
    2369      744      745 1
    2370     1439     1438 1
    2371      498      499 1
    2372     1734     1735 1
    2373      284      285 1
    2374     2406     2407 1
    2375     3243     3244 1
    2376     2325     2326 1
    2377     2627     2625 1
    2378     2244     2245 1
    2379     2838     2839 1
    2380     2433     2434 1
    2381      530      528 1
    2382     2676     2677 1
    2383     2595     2596 1
    2384     1770     1772 1
    2385     1650     1652 1
    2386     1698     1700 1
    2387     1578     1580 1
    2388     2193     2195 1
    2389     2328     2330 1
    2390     2382     2384 1
    2391     1530     1532 1
    2392     2571     2573 1
    2393     2112     2114 1
    2394     2652     2654 1
    2395      707      708 1
    2396      161      162 1
    2397      950      951 1
    2398      321      322 1
    2399     2244     2246 1
    2400     2406     2408 1
    2401     2325     2327 1
    2402     2838     2840 1
    2403     2595     2597 1
    2404     3267     3268 1
    2405     1971     1972 1
    2406     1809     1810 1
    2407     1066     1065 1
    2408     3186     3187 1
    2409      691      692 1
    2410     2268     2269 1
    2411     2889     2890 1
    2412     2727     2728 1
    2413      204      205 1
    2414      231      232 1
    2415      277      278 1
    2416      257      258 1
    2417      705      706 1
    2418     1408     1409 1
    2419     1457     1458 1
    2420     1094     1095 1
    2421     3123     3124 1
    2422     2172     2173 1
    2423     2058     2059 1
    2424      102      103 1
    2425     1728     1729 1
    2426     1560     1561 1
    2427     1680     1681 1
    2428     1809     1811 1
    2429     1287     1288 1
    2430     2658     2660 1
    2431     3267     3269 1
    2432     2268     2270 1
    2433     1971     1973 1
    2434     2199     2201 1
    2435     2415     2417 1
    2436     2037     2039 1
    2437     3186     3188 1
    2438      596      595 1
    2439     2970     2972 1
    2440      965      966 1
    2441      684      685 1
    2442      826      827 1
    2443     1074     1075 1
    2444     1150     1151 1
    2445     2238     2240 1
    2446     2319     2321 1
    2447      885      886 1
    2448     3237     3239 1
    2449     2400     2402 1
    2450     2508     2510 1
    2451     3345     3347 1
    2452     2940     2942 1
    2453     2859     2861 1
    2454     3021     3023 1
    2455      747      748 1
    2456       86       87 1
    2457      452      454 1
    2458     1377     1378 1
    2459     3156     3158 1
    2460     2346     2347 1
    2461     1177     1176 1
    2462      697      696 1
    2463     2853     2854 1
    2464      406      407 1
    2465     3113     3111 1
    2466     1539     1540 1
    2467      801      802 1
    2468     1398     1399 1
    2469     1659     1660 1
    2470     1491     1492 1
    2471     2670     2671 1
    2472      220      218 1
    2473      680      681 1
    2474        8        9 1
    2475     1247     1246 1
    2476     1335     1336 1
    2477     2061     2063 1
    2478     2979     2981 1
    2479     1980     1982 1
    2480     2142     2144 1
    2481     2898     2900 1
    2482      912      913 1
    2483      988      989 1
    2484     1500     1502 1
    2485     1403     1404 1
    2486      679      680 1
    2487      830      831 1
    2488      947      948 1
    2489     1304     1305 1
    2490     1228     1229 1
    2491     3009     3010 1
    2492     3225     3226 1
    2493     2010     2011 1
    2494     2226     2227 1
    2495     2307     2308 1
    2496     2388     2389 1
    2497     2928     2929 1
    2498     2847     2848 1
    2499      112      113 1
    2500      185      186 1
    2501      356      357 1
    2502      700      702 1
    2503      248      249 1
    2504     2421     2422 1
    2505      407      408 1
    2506      463      464 1
    2507      424      425 1
    2508      913      915 1
    2509     2289     2290 1
    2510      560      561 1
    2511       22       23 1
    2512      208      207 1
    2513     1120     1121 1
    2514      107      108 1
    2515      875      876 1
    2516     1311     1312 1
    2517      308      309 1
    2518      678      679 1
    2519      607      608 1
    2520      431      432 1
    2521     1248     1246 1
    2522      779      780 1
    2523     1110     1111 1
    2524     1139     1140 1
    2525      544      546 1
    2526      130      131 1
    2527     1294     1295 1
    2528      620      622 1
    2529      281      282 1
    2530     1453     1454 1
    2531      766      767 1
    2532      123      125 1
    2533      179      177 1
    2534      515      516 1
    2535     3135     3137 1
    2536      641      640 1
    2537      295      296 1
    2538     1190     1191 1
    2539      833      832 1
    2540      582      584 1
    2541      377      376 1
    2542     1608     1610 1
    2543      578      579 1
    2544      367      368 1
    2545     1462     1463 1
    2546     2970     2971 1
    2547     1602     1604 1
    2548     1415     1416 1
    2549     2985     2986 1
    2550     2148     2149 1
    2551     1986     1987 1
    2552     1170     1172 1
    2553     2067     2068 1
    2554     2904     2905 1
    2555     1047     1048 1
    2556     1331     1332 1
    2557     1405     1404 1
    2558     1253     1254 1
    2559     1262     1263 1
    2560     1250     1251 1
    2561      668      669 1
    2562      609      610 1
    2563      662      663 1
    2564       66       67 1
    2565     1432     1433 1
    2566       55       58 1
    2567      604      605 1
    2568     1327     1328 1
    2569      963      964 1
    2570      240      241 1
    2571     2985     2987 1
    2572     2148     2150 1
    2573     2067     2069 1
    2574      237      238 1
    2575     1986     1988 1
    2576     2904     2906 1
    2577     1197     1198 1
    2578      396      397 1
    2579      656      657 1
    2580     1077     1078 1
    2581     1143     1144 1
    2582     1388     1389 1
    2583     1806     1807 1
    2584      859      860 1
    2585     2265     2266 1
    2586     3183     3184 1
    2587     3048     3050 1
    2588      905      906 1
    2589        4        5 1
    2590     2886     2887 1
    2591     1968     1969 1
    2592     1079     1080 1
    2593      497      498 1
    2594      635      636 1
    2595      866      867 1
    2596      723      724 1
    2597     3315     3316 1
    2598     3153     3154 1
    2599     3072     3073 1
    2600     1797     1799 1
    2601     1277     1278 1
    2602     2295     2297 1
    2603     1169     1170 1
    2604     1094     1073 1
    2605     3159     3161 1
    2606     2820     2822 1
    2607     1428     1429 1
    2608     1587     1588 1
    2609     1707     1708 1
    2610     3246     3248 1
    2611     2196     2197 1
    2612     2034     2035 1
    2613     2247     2249 1
    2614     2115     2116 1
    2615     2574     2575 1
    2616     2817     2818 1
    2617     1788     1790 1
    2618     2655     2656 1
    2619     2868     2870 1
    2620      987      988 1
    2621     1126     1127 1
    2622     1332     1333 1
    2623     1260     1261 1
    2624     3180     3182 1
    2625     2883     2885 1
    2626     3261     3263 1
    2627     1136     1137 1
    2628     1381     1382 1
    2629     1965     1967 1
    2630     2721     2723 1
    2631     2262     2264 1
    2632     1803     1805 1
    2633     1096     1097 1
    2634      992      993 1
    2635       38       39 1
    2636     1449     1450 1
    2637      355      356 1
    2638     2772     2773 1
    2639     2691     2692 1
    2640     3312     3313 1
    2641     1854     1855 1
    2642     2610     2611 1
    2643     1509     1510 1
    2644     3069     3070 1
    2645     3150     3151 1
    2646     2592     2594 1
    2647     1237     1238 1
    2648      566      568 1
    2649     1273     1274 1
    2650     1007     1010 1
    2651     1551     1552 1
    2652     1671     1672 1
    2653     1599     1600 1
    2654      223      224 1
    2655      771      772 1
    2656     2124     2125 1
    2657     1203     1204 1
    2658     1179     1180 1
    2659      502      503 1
    2660     2691     2693 1
    2661     2772     2774 1
    2662     1854     1856 1
    2663     2610     2612 1
    2664     1509     1511 1
    2665     3069     3071 1
    2666      970      969 1
    2667     3150     3152 1
    2668     3312     3314 1
    2669     1275     1276 1
    2670      796      797 1
    2671      759      758 1
    2672      323      324 1
    2673      675      676 1
    2674      619      620 1
    2675      600      601 1
    2676      996      997 1
    2677       34       35 1
    2678     1746     1747 1
    2679     1626     1627 1
    2680      532      533 1
    2681      614      615 1
    2682      840      841 1
    2683      936      937 1
    2684     1353     1354 1
    2685     1161     1162 1
    2686     1214     1215 1
    2687      197      198 1
    2688      506      505 1
    2689     1572     1573 1
    2690     1692     1693 1
    2691     1175     1176 1
    2692      633      634 1
    2693      639      640 1
    2694     1518     1519 1
    2695     1108     1109 1
    2696      895      896 1
    2697     1257     1258 1
    2698       58       59 1
    2699      590      591 1
    2700     1746     1748 1
    2701     1626     1628 1
    2702     1977     1978 1
    2703     1815     1816 1
    2704     3300     3301 1
    2705     3273     3274 1
    2706     3381     3382 1
    2707     2544     2545 1
    2708     2760     2761 1
    2709     2463     2464 1
    2710      250      251 1
    2711     3192     3193 1
    2712      802      803 1
    2713      256      257 1
    2714      716      717 1
    2715     3264     3265 1
    2716     2526     2527 1
    2717     2445     2446 1
    2718     3282     3283 1
    2719     3363     3364 1
    2720     2364     2365 1
@<TRIPOS>SUBSTRUCTURE
       1 RES             1 RESIDUE    0 **** ROOT      0
