@<TRIPOS>MOLECULE
RES
11540 8852 1 0 1
SMALL
NO_CHARGES
@<TRIPOS>CRYSIN
   43.4270    43.4270   102.8660    90.0000    90.0000    90.0000  1  1
@<TRIPOS>ATOM
       1 CH3         35.4377    18.9689    78.5550 CH3           1 RES     
       2 CH3         35.4003    16.6313    78.2955 CH3           1 RES     
       3 CH3         33.5670    17.7554    78.6931 CH3           1 RES     
       4 NL          34.7566    17.7911    78.1149 NL            1 RES     
       5 CH2         34.4257    17.9553    76.7724 CH2           1 RES     
       6 CH2         35.8258    17.9920    76.1322 CH2           1 RES     
       7 OA          35.6947    18.1660    74.6632 OA            1 RES     
       8 P           35.6105    16.7129    73.9988 P             1 RES     
       9 OM          36.9817    15.9652    74.3463 OM            1 RES     
      10 OM          34.3013    16.0088    74.5907 OM            1 RES     
      11 OA          35.4682    16.8588    72.4118 OA            1 RES     
      12 CH2         35.3930    15.4943    71.8305 CH2           1 RES     
      13 CH1         35.9090    15.4412    70.5752 CH1           1 RES     
      14 OE          37.0794    15.0051    69.8000 OE            1 RES     
      15 C           37.3858    13.8819    70.7458 C             1 RES     
      16 O           36.7309    13.6215    71.7538 O             1 RES     
      17 CH2         38.3975    13.1734    70.0755 CH2           1 RES     
      18 CH2         38.8367    13.7327    68.7096 CH2           1 RES     
      19 CH2         39.8022    12.7409    68.0344 CH2           1 RES     
      20 CH2         40.2414    13.3002    66.6684 CH2           1 RES     
      21 CH2         41.2069    12.3084    65.9932 CH2           1 RES     
      22 CH2         41.6461    12.8677    64.6272 CH2           1 RES     
      23 CH2         42.6116    11.8759    63.9521 CH2           1 RES     
      24 CH2         43.0508    12.4352    62.5861 CH2           1 RES     
      25 CH2         44.0163    11.4434    61.9109 CH2           1 RES     
      26 CH2         44.4555    12.0027    60.5449 CH2           1 RES     
      27 CH2         45.4209    11.0109    59.8698 CH2           1 RES     
      28 CH2         45.8602    11.5702    58.5038 CH2           1 RES     
      29 CH2         46.8256    10.5784    57.8286 CH2           1 RES     
      30 CH2         47.2648    11.1377    56.4626 CH2           1 RES     
      31 CH2         48.2303    10.1459    55.7875 CH2           1 RES     
      32 CH2         48.6695    10.7052    54.4215 CH2           1 RES     
      33 CH3         49.5911     9.7585    53.7770 CH3           1 RES     
      34 CH2         35.9313    16.9742    70.7200 CH2           1 RES     
      35 OE          36.2595    17.4696    69.3816 OE            1 RES     
      36 C           36.2426    18.9384    69.6855 C             1 RES     
      37 O           36.0035    19.4182    70.7925 O             1 RES     
      38 CH2         36.7453    19.5099    68.5042 CH2           1 RES     
      39 CH2         37.1111    18.5328    67.3714 CH2           1 RES     
      40 CH2         37.8177    19.3004    66.2387 CH2           1 RES     
      41 CH2         38.1836    18.3234    65.1059 CH2           1 RES     
      42 CH2         38.8902    19.0909    63.9732 CH2           1 RES     
      43 CH2         39.2560    18.1139    62.8404 CH2           1 RES     
      44 CH2         39.9626    18.8815    61.7077 CH2           1 RES     
      45 CH2         40.3284    17.9044    60.5749 CH2           1 RES     
      46 CH2         41.0350    18.6720    59.4422 CH2           1 RES     
      47 CH2         41.4009    17.6950    58.3094 CH2           1 RES     
      48 CH2         42.1075    18.4626    57.1767 CH2           1 RES     
      49 CH2         42.4733    17.4855    56.0439 CH2           1 RES     
      50 CH2         43.1799    18.2531    54.9111 CH2           1 RES     
      51 CH2         43.5457    17.2760    53.7784 CH2           1 RES     
      52 CH2         44.2523    18.0436    52.6456 CH2           1 RES     
      53 CH2         44.6182    17.0666    51.5129 CH2           1 RES     
      54 CH3         45.2926    17.7993    50.4316 CH3           1 RES     
      55 CH3          7.9896    35.4377    78.5550 CH3           1 RES     
      56 CH3          9.0238    33.3410    78.2955 CH3           1 RES     
      57 CH3          6.8795    33.5039    78.6931 CH3           1 RES     
      58 NL           7.9215    34.0788    78.1149 NL            1 RES     
      59 CH2          7.5522    34.0739    76.7724 CH2           1 RES     
      60 CH2          8.7810    34.7459    76.1322 CH2           1 RES     
      61 OA           8.5849    34.8408    74.6632 OA            1 RES     
      62 P            9.1735    33.5097    73.9988 P             1 RES     
      63 OM          10.7349    33.4707    74.3463 OM            1 RES     
      64 OM           8.3304    32.2854    74.5907 OM            1 RES     
      65 OA           8.9803    33.5744    72.4118 OA            1 RES     
      66 CH2          9.5365    32.3262    71.8305 CH2           1 RES     
      67 CH1         10.0198    32.5146    70.5752 CH1           1 RES     
      68 OE          11.2602    32.6611    69.8000 OE            1 RES     
      69 C           12.0458    31.8018    70.7458 C             1 RES     
      70 O           11.5820    31.2711    71.7538 O             1 RES     
      71 CH2         13.2693    31.6335    70.0755 CH2           1 RES     
      72 CH2         13.4047    32.3317    68.7096 CH2           1 RES     
      73 CH2         14.7165    31.8903    68.0344 CH2           1 RES     
      74 CH2         14.8519    32.5884    66.6684 CH2           1 RES     
      75 CH2         16.1637    32.1470    65.9932 CH2           1 RES     
      76 CH2         16.2990    32.8451    64.6272 CH2           1 RES     
      77 CH2         17.6109    32.4037    63.9521 CH2           1 RES     
      78 CH2         17.7462    33.1018    62.5861 CH2           1 RES     
      79 CH2         19.0580    32.6604    61.9109 CH2           1 RES     
      80 CH2         19.1934    33.3585    60.5449 CH2           1 RES     
      81 CH2         20.5052    32.9171    59.8698 CH2           1 RES     
      82 CH2         20.6405    33.6152    58.5038 CH2           1 RES     
      83 CH2         21.9524    33.1738    57.8286 CH2           1 RES     
      84 CH2         22.0877    33.8719    56.4626 CH2           1 RES     
      85 CH2         23.3995    33.4305    55.7875 CH2           1 RES     
      86 CH2         23.5349    34.1286    54.4215 CH2           1 RES     
      87 CH3         24.7871    33.7073    53.7770 CH3           1 RES     
      88 CH2          9.3396    33.8886    70.7200 CH2           1 RES     
      89 OE           9.4054    34.4792    69.3816 OE            1 RES     
      90 C            8.7196    35.7782    69.6855 C             1 RES     
      91 O            8.2878    36.0958    70.7925 O             1 RES     
      92 CH2          8.9058    36.5162    68.5042 CH2           1 RES     
      93 CH2          9.6775    35.8140    67.3714 CH2           1 RES     
      94 CH2          9.9556    36.8196    66.2387 CH2           1 RES     
      95 CH2         10.7272    36.1174    65.1059 CH2           1 RES     
      96 CH2         11.0053    37.1230    63.9732 CH2           1 RES     
      97 CH2         11.7769    36.4208    62.8404 CH2           1 RES     
      98 CH2         12.0550    37.4264    61.7077 CH2           1 RES     
      99 CH2         12.8267    36.7242    60.5749 CH2           1 RES     
     100 CH2         13.1048    37.7298    59.4422 CH2           1 RES     
     101 CH2         13.8764    37.0276    58.3094 CH2           1 RES     
     102 CH2         14.1545    38.0332    57.1767 CH2           1 RES     
     103 CH2         14.9261    37.3310    56.0439 CH2           1 RES     
     104 CH2         15.2042    38.3365    54.9111 CH2           1 RES     
     105 CH2         15.9759    37.6344    53.7784 CH2           1 RES     
     106 CH2         16.2539    38.6399    52.6456 CH2           1 RES     
     107 CH2         17.0256    37.9378    51.5129 CH2           1 RES     
     108 CH3         17.2910    38.8976    50.4316 CH3           1 RES     
     109 CH3         13.4792     2.5000    78.5550 CH3           1 RES     
     110 CH3         13.7955     0.1836    78.2955 CH3           1 RES     
     111 CH3         11.8133     1.0178    78.6931 CH3           1 RES     
     112 NL          12.9839     1.2328    78.1149 NL            1 RES     
     113 CH2         12.6320     1.3452    76.7724 CH2           1 RES     
     114 CH2         14.0105     1.5930    76.1322 CH2           1 RES     
     115 OA          13.8546     1.7452    74.6632 OA            1 RES     
     116 P           13.9909     0.2961    73.9988 P             1 RES     
     117 OM          15.4594    -0.2358    74.3463 OM            1 RES     
     118 OM          12.8032    -0.5977    74.5907 OM            1 RES     
     119 OA          13.8282     0.4188    72.4118 OA            1 RES     
     120 CH2         13.9601    -0.9414    71.8305 CH2           1 RES     
     121 CH1         14.4782    -0.9159    70.5752 CH1           1 RES     
     122 OE          15.7010    -1.1701    69.8000 OE            1 RES     
     123 C           16.1737    -2.2341    70.7458 C             1 RES     
     124 O           15.5656    -2.5905    71.7538 O             1 RES     
     125 CH2         17.2808    -2.7816    70.0755 CH2           1 RES     
     126 CH2         17.6305    -2.1624    68.7096 CH2           1 RES     
     127 CH2         18.7347    -2.9968    68.0344 CH2           1 RES     
     128 CH2         19.0844    -2.3776    66.6684 CH2           1 RES     
     129 CH2         20.1887    -3.2121    65.9932 CH2           1 RES     
     130 CH2         20.5383    -2.5929    64.6272 CH2           1 RES     
     131 CH2         21.6426    -3.4274    63.9521 CH2           1 RES     
     132 CH2         21.9922    -2.8081    62.5861 CH2           1 RES     
     133 CH2         23.0965    -3.6426    61.9109 CH2           1 RES     
     134 CH2         23.4461    -3.0234    60.5449 CH2           1 RES     
     135 CH2         24.5504    -3.8579    59.8698 CH2           1 RES     
     136 CH2         24.9000    -3.2387    58.5038 CH2           1 RES     
     137 CH2         26.0043    -4.0731    57.8286 CH2           1 RES     
     138 CH2         26.3540    -3.4539    56.4626 CH2           1 RES     
     139 CH2         27.4582    -4.2884    55.7875 CH2           1 RES     
     140 CH2         27.8079    -3.6692    54.4215 CH2           1 RES     
     141 CH3         28.8619    -4.4657    53.7770 CH3           1 RES     
     142 CH2         14.2685     0.6029    70.7200 CH2           1 RES     
     143 OE          14.5182     1.1422    69.3816 OE            1 RES     
     144 C           14.2795     2.5916    69.6855 C             1 RES     
     145 O           13.9707     3.0297    70.7925 O             1 RES     
     146 CH2         14.6900     3.2324    68.5042 CH2           1 RES     
     147 CH2         15.1993     2.3219    67.3714 CH2           1 RES     
     148 CH2         15.7818     3.1874    66.2387 CH2           1 RES     
     149 CH2         16.2911     2.2769    65.1059 CH2           1 RES     
     150 CH2         16.8736     3.1424    63.9732 CH2           1 RES     
     151 CH2         17.3829     2.2319    62.8404 CH2           1 RES     
     152 CH2         17.9654     3.0974    61.7077 CH2           1 RES     
     153 CH2         18.4746     2.1869    60.5749 CH2           1 RES     
     154 CH2         19.0571     3.0524    59.4422 CH2           1 RES     
     155 CH2         19.5664     2.1419    58.3094 CH2           1 RES     
     156 CH2         20.1489     3.0074    57.1767 CH2           1 RES     
     157 CH2         20.6582     2.0969    56.0439 CH2           1 RES     
     158 CH2         21.2407     2.9624    54.9111 CH2           1 RES     
     159 CH2         21.7500     2.0519    53.7784 CH2           1 RES     
     160 CH2         22.3324     2.9174    52.6456 CH2           1 RES     
     161 CH2         22.8417     2.0069    51.5129 CH2           1 RES     
     162 CH3         23.3977     2.8331    50.4316 CH3           1 RES     
     163 CH3         13.4792    35.4377    78.5550 CH3           1 RES     
     164 CH3         14.8047    33.5119    78.2955 CH3           1 RES     
     165 CH3         12.6593    33.3641    78.6931 CH3           1 RES     
     166 NL          13.6076    34.0832    78.1149 NL            1 RES     
     167 CH2         13.2428    34.0251    76.7724 CH2           1 RES     
     168 CH2         14.3620    34.8671    76.1322 CH2           1 RES     
     169 OA          14.1543    34.9328    74.6632 OA            1 RES     
     170 P           14.9286    33.7004    73.9988 P             1 RES     
     171 OM          16.4792    33.8867    74.3463 OM            1 RES     
     172 OM          14.2706    32.3674    74.5907 OM            1 RES     
     173 OA          14.7281    33.7366    72.4118 OA            1 RES     
     174 CH2         15.4583    32.5815    71.8305 CH2           1 RES     
     175 CH1         15.9094    32.8376    70.5752 CH1           1 RES     
     176 OE          17.1157    33.1613    69.8000 OE            1 RES     
     177 C           18.0169    32.4241    70.7458 C             1 RES     
     178 O           17.6344    31.8321    71.7538 O             1 RES     
     179 CH2         19.2519    32.4339    70.0755 CH2           1 RES     
     180 CH2         19.2853    33.1442    68.7096 CH2           1 RES     
     181 CH2         20.6470    32.8964    68.0344 CH2           1 RES     
     182 CH2         20.6804    33.6067    66.6684 CH2           1 RES     
     183 CH2         22.0421    33.3589    65.9932 CH2           1 RES     
     184 CH2         22.0755    34.0693    64.6272 CH2           1 RES     
     185 CH2         23.4372    33.8214    63.9521 CH2           1 RES     
     186 CH2         23.4706    34.5318    62.5861 CH2           1 RES     
     187 CH2         24.8323    34.2840    61.9109 CH2           1 RES     
     188 CH2         24.8657    34.9943    60.5449 CH2           1 RES     
     189 CH2         26.2274    34.7465    59.8698 CH2           1 RES     
     190 CH2         26.2607    35.4568    58.5038 CH2           1 RES     
     191 CH2         27.6225    35.2090    57.8286 CH2           1 RES     
     192 CH2         27.6558    35.9193    56.4626 CH2           1 RES     
     193 CH2         29.0176    35.6715    55.7875 CH2           1 RES     
     194 CH2         29.0509    36.3819    54.4215 CH2           1 RES     
     195 CH3         30.3508    36.1453    53.7770 CH3           1 RES     
     196 CH2         15.0383    34.0992    70.7200 CH2           1 RES     
     197 OE          15.0183    34.6932    69.3816 OE            1 RES     
     198 C           14.1525    35.8799    69.6855 C             1 RES     
     199 O           13.6795    36.1319    70.7925 O             1 RES     
     200 CH2         14.2305    36.6369    68.5042 CH2           1 RES     
     201 CH2         15.0953    36.0532    67.3714 CH2           1 RES     
     202 CH2         15.2256    37.0884    66.2387 CH2           1 RES     
     203 CH2         16.0903    36.5047    65.1059 CH2           1 RES     
     204 CH2         16.2207    37.5398    63.9732 CH2           1 RES     
     205 CH2         17.0854    36.9562    62.8404 CH2           1 RES     
     206 CH2         17.2157    37.9913    61.7077 CH2           1 RES     
     207 CH2         18.0805    37.4076    60.5749 CH2           1 RES     
     208 CH2         18.2108    38.4428    59.4422 CH2           1 RES     
     209 CH2         19.0756    37.8591    58.3094 CH2           1 RES     
     210 CH2         19.2059    38.8942    57.1767 CH2           1 RES     
     211 CH2         20.0706    38.3106    56.0439 CH2           1 RES     
     212 CH2         20.2009    39.3457    54.9111 CH2           1 RES     
     213 CH2         21.0657    38.7620    53.7784 CH2           1 RES     
     214 CH2         21.1960    39.7972    52.6456 CH2           1 RES     
     215 CH2         22.0608    39.2135    51.5129 CH2           1 RES     
     216 CH3         22.1852    40.2016    50.4316 CH3           1 RES     
     217 CH3         35.4377    40.9273    78.5550 CH3           1 RES     
     218 CH3         36.1018    38.6857    78.2955 CH3           1 RES     
     219 CH3         34.0160    39.2095    78.6931 CH3           1 RES     
     220 NL          35.1404    39.5996    78.1149 NL            1 RES     
     221 CH2         34.7756    39.6573    76.7724 CH2           1 RES     
     222 CH2         36.1005    40.1115    76.1322 CH2           1 RES     
     223 OA          35.9233    40.2383    74.6632 OA            1 RES     
     224 P           36.2779    38.8266    73.9988 P             1 RES     
     225 OM          37.8101    38.5237    74.3463 OM            1 RES     
     226 OM          35.2396    37.7629    74.5907 OM            1 RES     
     227 OA          36.0985    38.9231    72.4118 OA            1 RES     
     228 CH2         36.4352    37.5988    71.8305 CH2           1 RES     
     229 CH1         36.9434    37.7026    70.5752 CH1           1 RES     
     230 OE          38.1907    37.6369    69.8000 OE            1 RES     
     231 C           38.8194    36.6569    70.7458 C             1 RES     
     232 O           38.2724    36.2124    71.7538 O             1 RES     
     233 CH2         39.9968    36.2838    70.0755 CH2           1 RES     
     234 CH2         40.2484    36.9489    68.7096 CH2           1 RES     
     235 CH2         41.4665    36.2917    68.0344 CH2           1 RES     
     236 CH2         41.7181    36.9568    66.6684 CH2           1 RES     
     237 CH2         42.9363    36.2996    65.9932 CH2           1 RES     
     238 CH2         43.1879    36.9647    64.6272 CH2           1 RES     
     239 CH2         44.4060    36.3074    63.9521 CH2           1 RES     
     240 CH2         44.6576    36.9725    62.5861 CH2           1 RES     
     241 CH2         45.8757    36.3153    61.9109 CH2           1 RES     
     242 CH2         46.1274    36.9804    60.5449 CH2           1 RES     
     243 CH2         47.3455    36.3232    59.8698 CH2           1 RES     
     244 CH2         47.5971    36.9883    58.5038 CH2           1 RES     
     245 CH2         48.8152    36.3310    57.8286 CH2           1 RES     
     246 CH2         49.0669    36.9961    56.4626 CH2           1 RES     
     247 CH2         50.2850    36.3389    55.7875 CH2           1 RES     
     248 CH2         50.5366    37.0040    54.4215 CH2           1 RES     
     249 CH3         51.6993    36.3766    53.7770 CH3           1 RES     
     250 CH2         36.5058    39.1719    70.7200 CH2           1 RES     
     251 OE          36.6707    39.7429    69.3816 OE            1 RES     
     252 C           36.2148    41.1393    69.6855 C             1 RES     
     253 O           35.8430    41.5254    70.7925 O             1 RES     
     254 CH2         36.5233    41.8350    68.5042 CH2           1 RES     
     255 CH2         37.1649    41.0123    67.3714 CH2           1 RES     
     256 CH2         37.6093    41.9562    66.2387 CH2           1 RES     
     257 CH2         38.2509    41.1335    65.1059 CH2           1 RES     
     258 CH2         38.6953    42.0774    63.9732 CH2           1 RES     
     259 CH2         39.3368    41.2547    62.8404 CH2           1 RES     
     260 CH2         39.7812    42.1986    61.7077 CH2           1 RES     
     261 CH2         40.4228    41.3759    60.5749 CH2           1 RES     
     262 CH2         40.8672    42.3198    59.4422 CH2           1 RES     
     263 CH2         41.5087    41.4971    58.3094 CH2           1 RES     
     264 CH2         41.9531    42.4410    57.1767 CH2           1 RES     
     265 CH2         42.5947    41.6183    56.0439 CH2           1 RES     
     266 CH2         43.0391    42.5622    54.9111 CH2           1 RES     
     267 CH2         43.6806    41.7395    53.7784 CH2           1 RES     
     268 CH2         44.1250    42.6834    52.6456 CH2           1 RES     
     269 CH2         44.7666    41.8607    51.5129 CH2           1 RES     
     270 CH3         45.1908    42.7617    50.4316 CH3           1 RES     
     271 CH3         29.9481    35.4377    78.5550 CH3           1 RES     
     272 CH3         30.5550    33.1800    78.2955 CH3           1 RES     
     273 CH3         28.4832    33.7566    78.6931 CH3           1 RES     
     274 NL          29.6171    34.1180    78.1149 NL            1 RES     
     275 CH2         29.2538    34.1849    76.7724 CH2           1 RES     
     276 CH2         30.5899    34.6053    76.1322 CH2           1 RES     
     277 OA          30.4160    34.7365    74.6632 OA            1 RES     
     278 P           30.7346    33.3163    73.9988 P             1 RES     
     279 OM          32.2585    32.9745    74.3463 OM            1 RES     
     280 OM          29.6695    32.2793    74.5907 OM            1 RES     
     281 OA          30.5577    33.4174    72.4118 OA            1 RES     
     282 CH2         30.8606    32.0849    71.8305 CH2           1 RES     
     283 CH1         31.3713    32.1757    70.5752 CH1           1 RES     
     284 OE          32.6165    32.0783    69.8000 OE            1 RES     
     285 C           33.2200    31.0826    70.7458 C             1 RES     
     286 O           32.6619    30.6522    71.7538 O             1 RES     
     287 CH2         34.3875    30.6797    70.0755 CH2           1 RES     
     288 CH2         34.6560    31.3382    68.7096 CH2           1 RES     
     289 CH2         35.8570    30.6502    68.0344 CH2           1 RES     
     290 CH2         36.1255    31.3087    66.6684 CH2           1 RES     
     291 CH2         37.3264    30.6206    65.9932 CH2           1 RES     
     292 CH2         37.5949    31.2791    64.6272 CH2           1 RES     
     293 CH2         38.7959    30.5911    63.9521 CH2           1 RES     
     294 CH2         39.0644    31.2496    62.5861 CH2           1 RES     
     295 CH2         40.2654    30.5616    61.9109 CH2           1 RES     
     296 CH2         40.5339    31.2201    60.5449 CH2           1 RES     
     297 CH2         41.7348    30.5320    59.8698 CH2           1 RES     
     298 CH2         42.0033    31.1905    58.5038 CH2           1 RES     
     299 CH2         43.2043    30.5025    57.8286 CH2           1 RES     
     300 CH2         43.4728    31.1610    56.4626 CH2           1 RES     
     301 CH2         44.6738    30.4730    55.7875 CH2           1 RES     
     302 CH2         44.9423    31.1315    54.4215 CH2           1 RES     
     303 CH3         46.0887    30.4747    53.7770 CH3           1 RES     
     304 CH2         30.9711    33.6557    70.7200 CH2           1 RES     
     305 OE          31.1505    34.2223    69.3816 OE            1 RES     
     306 C           30.7303    35.6298    69.6855 C             1 RES     
     307 O           30.3685    36.0253    70.7925 O             1 RES     
     308 CH2         31.0565    36.3175    68.5042 CH2           1 RES     
     309 CH2         31.6769    35.4787    67.3714 CH2           1 RES     
     310 CH2         32.1452    36.4110    66.2387 CH2           1 RES     
     311 CH2         32.7656    35.5722    65.1059 CH2           1 RES     
     312 CH2         33.2339    36.5045    63.9732 CH2           1 RES     
     313 CH2         33.8543    35.6658    62.8404 CH2           1 RES     
     314 CH2         34.3225    36.5981    61.7077 CH2           1 RES     
     315 CH2         34.9430    35.7593    60.5749 CH2           1 RES     
     316 CH2         35.4112    36.6916    59.4422 CH2           1 RES     
     317 CH2         36.0316    35.8528    58.3094 CH2           1 RES     
     318 CH2         36.4999    36.7851    57.1767 CH2           1 RES     
     319 CH2         37.1203    35.9463    56.0439 CH2           1 RES     
     320 CH2         37.5886    36.8787    54.9111 CH2           1 RES     
     321 CH2         38.2090    36.0399    53.7784 CH2           1 RES     
     322 CH2         38.6773    36.9722    52.6456 CH2           1 RES     
     323 CH2         39.2977    36.1334    51.5129 CH2           1 RES     
     324 CH3         39.7447    37.0233    50.4316 CH3           1 RES     
     325 CH3         40.9273    40.9273    78.5550 CH3           1 RES     
     326 CH3         40.4186    38.6454    78.2955 CH3           1 RES     
     327 CH3         38.8501    40.1167    78.6931 CH3           1 RES     
     328 NL          40.0224    39.9113    78.1149 NL            1 RES     
     329 CH2         39.7315    40.1390    76.7724 CH2           1 RES     
     330 CH2         41.1102    39.8922    76.1322 CH2           1 RES     
     331 OA          41.0169    40.0891    74.6632 OA            1 RES     
     332 P           40.6410    38.6830    73.9988 P             1 RES     
     333 OM          41.8329    37.6738    74.3463 OM            1 RES     
     334 OM          39.2166    38.2578    74.5907 OM            1 RES     
     335 OA          40.5311    38.8546    72.4118 OA            1 RES     
     336 CH2         40.1819    37.5334    71.8305 CH2           1 RES     
     337 CH1         40.6765    37.3772    70.5752 CH1           1 RES     
     338 OE          41.7347    36.7138    69.8000 OE            1 RES     
     339 C           41.8081    35.5518    70.7458 C             1 RES     
     340 O           41.1140    35.4290    71.7538 O             1 RES     
     341 CH2         42.6558    34.6536    70.0755 CH2           1 RES     
     342 CH2         43.1989    35.1127    68.7096 CH2           1 RES     
     343 CH2         43.9442    33.9464    68.0344 CH2           1 RES     
     344 CH2         44.4873    34.4054    66.6684 CH2           1 RES     
     345 CH2         45.2326    33.2391    65.9932 CH2           1 RES     
     346 CH2         45.7757    33.6981    64.6272 CH2           1 RES     
     347 CH2         46.5210    32.5318    63.9521 CH2           1 RES     
     348 CH2         47.0641    32.9909    62.5861 CH2           1 RES     
     349 CH2         47.8094    31.8246    61.9109 CH2           1 RES     
     350 CH2         48.3525    32.2836    60.5449 CH2           1 RES     
     351 CH2         49.0978    31.1173    59.8698 CH2           1 RES     
     352 CH2         49.6409    31.5764    58.5038 CH2           1 RES     
     353 CH2         50.3862    30.4101    57.8286 CH2           1 RES     
     354 CH2         50.9293    30.8691    56.4626 CH2           1 RES     
     355 CH2         51.6747    29.7028    55.7875 CH2           1 RES     
     356 CH2         52.2178    30.1619    54.4215 CH2           1 RES     
     357 CH3         52.9292    29.0486    53.7770 CH3           1 RES     
     358 CH2         41.0079    38.8741    70.7200 CH2           1 RES     
     359 OE          41.4295    39.2930    69.3816 OE            1 RES     
     360 C           41.7095    40.7350    69.6855 C             1 RES     
     361 O           41.5722    41.2531    70.7925 O             1 RES     
     362 CH2         42.3172    41.1931    68.5042 CH2           1 RES     
     363 CH2         42.4782    40.1623    67.3714 CH2           1 RES     
     364 CH2         43.3253    40.7714    66.2387 CH2           1 RES     
     365 CH2         43.4863    39.7406    65.1059 CH2           1 RES     
     366 CH2         44.3333    40.3497    63.9732 CH2           1 RES     
     367 CH2         44.4943    39.3189    62.8404 CH2           1 RES     
     368 CH2         45.3413    39.9280    61.7077 CH2           1 RES     
     369 CH2         45.5023    38.8972    60.5749 CH2           1 RES     
     370 CH2         46.3494    39.5063    59.4422 CH2           1 RES     
     371 CH2         46.5104    38.4755    58.3094 CH2           1 RES     
     372 CH2         47.3574    39.0846    57.1767 CH2           1 RES     
     373 CH2         47.5184    38.0538    56.0439 CH2           1 RES     
     374 CH2         48.3655    38.6628    54.9111 CH2           1 RES     
     375 CH2         48.5264    37.6320    53.7784 CH2           1 RES     
     376 CH2         49.3735    38.2411    52.6456 CH2           1 RES     
     377 CH2         49.5345    37.2103    51.5129 CH2           1 RES     
     378 CH3         50.3430    37.7917    50.4316 CH3           1 RES     
     379 CH3         18.9689    29.9481    78.5550 CH3           1 RES     
     380 CH3         19.7463    27.7433    78.2955 CH3           1 RES     
     381 CH3         17.6365    28.1601    78.6931 CH3           1 RES     
     382 NL          18.7396    28.6070    78.1149 NL            1 RES     
     383 CH2         18.3723    28.6460    76.7724 CH2           1 RES     
     384 CH2         19.6723    29.1671    76.1322 CH2           1 RES     
     385 OA          19.4889    29.2847    74.6632 OA            1 RES     
     386 P           19.9150    27.8929    73.9988 P             1 RES     
     387 OM          21.4606    27.6685    74.3463 OM            1 RES     
     388 OM          18.9323    26.7777    74.5907 OM            1 RES     
     389 OA          19.7309    27.9802    72.4118 OA            1 RES     
     390 CH2         20.1347    26.6747    71.8305 CH2           1 RES     
     391 CH1         20.6369    26.8042    70.5752 CH1           1 RES     
     392 OE          21.8859    26.8022    69.8000 OE            1 RES     
     393 C           22.5638    25.8555    70.7458 C             1 RES     
     394 O           22.0401    25.3837    71.7538 O             1 RES     
     395 CH2         23.7586    25.5429    70.0755 CH2           1 RES     
     396 CH2         23.9760    26.2200    68.7096 CH2           1 RES     
     397 CH2         25.2260    25.6257    68.0344 CH2           1 RES     
     398 CH2         25.4434    26.3027    66.6684 CH2           1 RES     
     399 CH2         26.6935    25.7084    65.9932 CH2           1 RES     
     400 CH2         26.9109    26.3855    64.6272 CH2           1 RES     
     401 CH2         28.1609    25.7911    63.9521 CH2           1 RES     
     402 CH2         28.3783    26.4682    62.5861 CH2           1 RES     
     403 CH2         29.6283    25.8739    61.9109 CH2           1 RES     
     404 CH2         29.8457    26.5510    60.5449 CH2           1 RES     
     405 CH2         31.0958    25.9566    59.8698 CH2           1 RES     
     406 CH2         31.3132    26.6337    58.5038 CH2           1 RES     
     407 CH2         32.5632    26.0394    57.8286 CH2           1 RES     
     408 CH2         32.7806    26.7164    56.4626 CH2           1 RES     
     409 CH2         34.0306    26.1221    55.7875 CH2           1 RES     
     410 CH2         34.2480    26.7992    54.4215 CH2           1 RES     
     411 CH3         35.4412    26.2319    53.7770 CH3           1 RES     
     412 CH2         20.1250    28.2494    70.7200 CH2           1 RES     
     413 OE          20.2606    28.8280    69.3816 OE            1 RES     
     414 C           19.7342    30.1994    69.6855 C             1 RES     
     415 O           19.3432    30.5661    70.7925 O             1 RES     
     416 CH2         20.0068    30.9099    68.5042 CH2           1 RES     
     417 CH2         20.6895    30.1209    67.3714 CH2           1 RES     
     418 CH2         21.0852    31.0863    66.2387 CH2           1 RES     
     419 CH2         21.7679    30.2973    65.1059 CH2           1 RES     
     420 CH2         22.1636    31.2627    63.9732 CH2           1 RES     
     421 CH2         22.8462    30.4737    62.8404 CH2           1 RES     
     422 CH2         23.2419    31.4390    61.7077 CH2           1 RES     
     423 CH2         23.9246    30.6501    60.5749 CH2           1 RES     
     424 CH2         24.3203    31.6154    59.4422 CH2           1 RES     
     425 CH2         25.0030    30.8265    58.3094 CH2           1 RES     
     426 CH2         25.3987    31.7918    57.1767 CH2           1 RES     
     427 CH2         26.0813    31.0028    56.0439 CH2           1 RES     
     428 CH2         26.4770    31.9682    54.9111 CH2           1 RES     
     429 CH2         27.1597    31.1792    53.7784 CH2           1 RES     
     430 CH2         27.5554    32.1445    52.6456 CH2           1 RES     
     431 CH2         28.2381    31.3556    51.5129 CH2           1 RES     
     432 CH3         28.6158    32.2770    50.4316 CH3           1 RES     
     433 CH3         40.9273    29.9481    78.5550 CH3           1 RES     
     434 CH3         42.0324    27.8879    78.2955 CH3           1 RES     
     435 CH3         39.8837    27.9776    78.6931 CH3           1 RES     
     436 NL          40.9056    28.5877    78.1149 NL            1 RES     
     437 CH2         40.5366    28.5701    76.7724 CH2           1 RES     
     438 CH2         41.7418    29.2837    76.1322 CH2           1 RES     
     439 OA          41.5426    29.3719    74.6632 OA            1 RES     
     440 P           42.1763    28.0615    73.9988 P             1 RES     
     441 OM          43.7380    28.0758    74.3463 OM            1 RES     
     442 OM          41.3754    26.8093    74.5907 OM            1 RES     
     443 OA          41.9810    28.1197    72.4118 OA            1 RES     
     444 CH2         42.5794    26.8912    71.8305 CH2           1 RES     
     445 CH1         43.0560    27.0959    70.5752 CH1           1 RES     
     446 OE          44.2907    27.2846    69.8000 OE            1 RES     
     447 C           45.1051    26.4526    70.7458 C             1 RES     
     448 O           44.6597    25.9064    71.7538 O             1 RES     
     449 CH2         46.3337    26.3262    70.0755 CH2           1 RES     
     450 CH2         46.4451    27.0285    68.7096 CH2           1 RES     
     451 CH2         47.7713    26.6321    68.0344 CH2           1 RES     
     452 CH2         47.8827    27.3344    66.6684 CH2           1 RES     
     453 CH2         49.2088    26.9380    65.9932 CH2           1 RES     
     454 CH2         49.3203    27.6403    64.6272 CH2           1 RES     
     455 CH2         50.6464    27.2439    63.9521 CH2           1 RES     
     456 CH2         50.7579    27.9462    62.5861 CH2           1 RES     
     457 CH2         52.0840    27.5498    61.9109 CH2           1 RES     
     458 CH2         52.1955    28.2521    60.5449 CH2           1 RES     
     459 CH2         53.5216    27.8557    59.8698 CH2           1 RES     
     460 CH2         53.6330    28.5580    58.5038 CH2           1 RES     
     461 CH2         54.9592    28.1616    57.8286 CH2           1 RES     
     462 CH2         55.0706    28.8639    56.4626 CH2           1 RES     
     463 CH2         56.3967    28.4675    55.7875 CH2           1 RES     
     464 CH2         56.5082    29.1698    54.4215 CH2           1 RES     
     465 CH3         57.7740    28.7914    53.7770 CH3           1 RES     
     466 CH2         42.3293    28.4459    70.7200 CH2           1 RES     
     467 OE          42.3750    29.0385    69.3816 OE            1 RES     
     468 C           41.6453    30.3133    69.6855 C             1 RES     
     469 O           41.2029    30.6160    70.7925 O             1 RES     
     470 CH2         41.8062    31.0572    68.5042 CH2           1 RES     
     471 CH2         42.6014    30.3817    67.3714 CH2           1 RES     
     472 CH2         42.8450    31.3962    66.2387 CH2           1 RES     
     473 CH2         43.6401    30.7207    65.1059 CH2           1 RES     
     474 CH2         43.8838    31.7352    63.9732 CH2           1 RES     
     475 CH2         44.6789    31.0597    62.8404 CH2           1 RES     
     476 CH2         44.9226    32.0742    61.7077 CH2           1 RES     
     477 CH2         45.7177    31.3988    60.5749 CH2           1 RES     
     478 CH2         45.9613    32.4132    59.4422 CH2           1 RES     
     479 CH2         46.7565    31.7378    58.3094 CH2           1 RES     
     480 CH2         47.0001    32.7522    57.1767 CH2           1 RES     
     481 CH2         47.7952    32.0768    56.0439 CH2           1 RES     
     482 CH2         48.0389    33.0912    54.9111 CH2           1 RES     
     483 CH2         48.8340    32.4158    53.7784 CH2           1 RES     
     484 CH2         49.0777    33.4303    52.6456 CH2           1 RES     
     485 CH2         49.8728    32.7548    51.5129 CH2           1 RES     
     486 CH3         50.1054    33.7232    50.4316 CH3           1 RES     
     487 CH3          7.9896    29.9481    78.5550 CH3           1 RES     
     488 CH3          8.1620    27.6166    78.2955 CH3           1 RES     
     489 CH3          6.2352    28.5718    78.6931 CH3           1 RES     
     490 NL           7.4168    28.7139    78.1149 NL            1 RES     
     491 CH2          7.0726    28.8479    76.7724 CH2           1 RES     
     492 CH2          8.4638    29.0100    76.1322 CH2           1 RES     
     493 OA           8.3176    29.1715    74.6632 OA            1 RES     
     494 P            8.3640    27.7168    73.9988 P             1 RES     
     495 OM           9.7967    27.0950    74.3463 OM            1 RES     
     496 OM           7.1233    26.8981    74.5907 OM            1 RES     
     497 OA           8.2092    27.8492    72.4118 OA            1 RES     
     498 CH2          8.2567    26.4836    71.8305 CH2           1 RES     
     499 CH1          8.7753    26.4769    70.5752 CH1           1 RES     
     500 OE           9.9801    26.1476    69.8000 OE            1 RES     
     501 C           10.3861    25.0564    70.7458 C             1 RES     
     502 O            9.7571    24.7383    71.7538 O             1 RES     
     503 CH2         11.4572    24.4415    70.0755 CH2           1 RES     
     504 CH2         11.8445    25.0379    68.7096 CH2           1 RES     
     505 CH2         12.8950    24.1367    68.0344 CH2           1 RES     
     506 CH2         13.2823    24.7331    66.6684 CH2           1 RES     
     507 CH2         14.3329    23.8319    65.9932 CH2           1 RES     
     508 CH2         14.7201    24.4283    64.6272 CH2           1 RES     
     509 CH2         15.7707    23.5271    63.9521 CH2           1 RES     
     510 CH2         16.1580    24.1235    62.5861 CH2           1 RES     
     511 CH2         17.2085    23.2223    61.9109 CH2           1 RES     
     512 CH2         17.5958    23.8187    60.5449 CH2           1 RES     
     513 CH2         18.6463    22.9176    59.8698 CH2           1 RES     
     514 CH2         19.0336    23.5140    58.5038 CH2           1 RES     
     515 CH2         20.0841    22.6128    57.8286 CH2           1 RES     
     516 CH2         20.4714    23.2092    56.4626 CH2           1 RES     
     517 CH2         21.5219    22.3080    55.7875 CH2           1 RES     
     518 CH2         21.9092    22.9044    54.4215 CH2           1 RES     
     519 CH3         22.9120    22.0442    53.7770 CH3           1 RES     
     520 CH2          8.6601    28.0058    70.7200 CH2           1 RES     
     521 OE           8.9426    28.5286    69.3816 OE            1 RES     
     522 C            8.7940    29.9900    69.6855 C             1 RES     
     523 O            8.5129    30.4464    70.7925 O             1 RES     
     524 CH2          9.2434    30.6042    68.5042 CH2           1 RES     
     525 CH2          9.6954    29.6639    67.3714 CH2           1 RES     
     526 CH2         10.3303    30.4918    66.2387 CH2           1 RES     
     527 CH2         10.7823    29.5515    65.1059 CH2           1 RES     
     528 CH2         11.4172    30.3793    63.9732 CH2           1 RES     
     529 CH2         11.8692    29.4390    62.8404 CH2           1 RES     
     530 CH2         12.5041    30.2669    61.7077 CH2           1 RES     
     531 CH2         12.9561    29.3266    60.5749 CH2           1 RES     
     532 CH2         13.5910    30.1544    59.4422 CH2           1 RES     
     533 CH2         14.0430    29.2141    58.3094 CH2           1 RES     
     534 CH2         14.6779    30.0420    57.1767 CH2           1 RES     
     535 CH2         15.1299    29.1017    56.0439 CH2           1 RES     
     536 CH2         15.7648    29.9295    54.9111 CH2           1 RES     
     537 CH2         16.2168    28.9892    53.7784 CH2           1 RES     
     538 CH2         16.8517    29.8171    52.6456 CH2           1 RES     
     539 CH2         17.3037    28.8768    51.5129 CH2           1 RES     
     540 CH3         17.9097    29.6670    50.4316 CH3           1 RES     
     541 CH3         13.4792    13.4792    78.5550 CH3           1 RES     
     542 CH3         14.4040    11.3320    78.2955 CH3           1 RES     
     543 CH3         12.2709    11.6052    78.6931 CH3           1 RES     
     544 NL          13.3412    12.1257    78.1149 NL            1 RES     
     545 CH2         12.9721    12.1398    76.7724 CH2           1 RES     
     546 CH2         14.2339    12.7476    76.1322 CH2           1 RES     
     547 OA          14.0430    12.8525    74.6632 OA            1 RES     
     548 P           14.5622    11.4927    73.9988 P             1 RES     
     549 OM          16.1194    11.3733    74.3463 OM            1 RES     
     550 OM          13.6571    10.3136    74.5907 OM            1 RES     
     551 OA          14.3726    11.5674    72.4118 OA            1 RES     
     552 CH2         14.8637    10.2922    71.8305 CH2           1 RES     
     553 CH1         15.3561    10.4553    70.5752 CH1           1 RES     
     554 OE          16.6023    10.5378    69.8000 OE            1 RES     
     555 C           17.3426     9.6391    70.7458 C             1 RES     
     556 O           16.8521     9.1330    71.7538 O             1 RES     
     557 CH2         18.5559     9.4080    70.0755 CH2           1 RES     
     558 CH2         18.7270    10.0982    68.7096 CH2           1 RES     
     559 CH2         20.0143     9.5898    68.0344 CH2           1 RES     
     560 CH2         20.1855    10.2800    66.6684 CH2           1 RES     
     561 CH2         21.4728     9.7715    65.9932 CH2           1 RES     
     562 CH2         21.6440    10.4617    64.6272 CH2           1 RES     
     563 CH2         22.9313     9.9533    63.9521 CH2           1 RES     
     564 CH2         23.1024    10.6435    62.5861 CH2           1 RES     
     565 CH2         24.3898    10.1351    61.9109 CH2           1 RES     
     566 CH2         24.5609    10.8253    60.5449 CH2           1 RES     
     567 CH2         25.8483    10.3168    59.8698 CH2           1 RES     
     568 CH2         26.0194    11.0070    58.5038 CH2           1 RES     
     569 CH2         27.3067    10.4986    57.8286 CH2           1 RES     
     570 CH2         27.4779    11.1888    56.4626 CH2           1 RES     
     571 CH2         28.7652    10.6804    55.7875 CH2           1 RES     
     572 CH2         28.9364    11.3706    54.4215 CH2           1 RES     
     573 CH3         30.1652    10.8853    53.7770 CH3           1 RES     
     574 CH2         14.7476    11.8626    70.7200 CH2           1 RES     
     575 OE          14.8437    12.4491    69.3816 OE            1 RES     
     576 C           14.2258    13.7817    69.6855 C             1 RES     
     577 O           13.8109    14.1211    70.7925 O             1 RES     
     578 CH2         14.4498    14.5090    68.5042 CH2           1 RES     
     579 CH2         15.1842    13.7680    67.3714 CH2           1 RES     
     580 CH2         15.5138    14.7579    66.2387 CH2           1 RES     
     581 CH2         16.2482    14.0169    65.1059 CH2           1 RES     
     582 CH2         16.5778    15.0068    63.9732 CH2           1 RES     
     583 CH2         17.3122    14.2658    62.8404 CH2           1 RES     
     584 CH2         17.6417    15.2557    61.7077 CH2           1 RES     
     585 CH2         18.3762    14.5147    60.5749 CH2           1 RES     
     586 CH2         18.7057    15.5046    59.4422 CH2           1 RES     
     587 CH2         19.4401    14.7636    58.3094 CH2           1 RES     
     588 CH2         19.7697    15.7534    57.1767 CH2           1 RES     
     589 CH2         20.5041    15.0125    56.0439 CH2           1 RES     
     590 CH2         20.8337    16.0023    54.9111 CH2           1 RES     
     591 CH2         21.5681    15.2613    53.7784 CH2           1 RES     
     592 CH2         21.8976    16.2512    52.6456 CH2           1 RES     
     593 CH2         22.6321    15.5102    51.5129 CH2           1 RES     
     594 CH3         22.9466    16.4551    50.4316 CH3           1 RES     
     595 CH3         24.4585    24.4585    78.5550 CH3           1 RES     
     596 CH3         24.5269    22.1216    78.2955 CH3           1 RES     
     597 CH3         22.6446    23.1616    78.6931 CH3           1 RES     
     598 NL          23.8313    23.2511    78.1149 NL            1 RES     
     599 CH2         23.4934    23.4001    76.7724 CH2           1 RES     
     600 CH2         24.8904    23.5002    76.1322 CH2           1 RES     
     601 OA          24.7516    23.6681    74.6632 OA            1 RES     
     602 P           24.7332    22.2127    73.9988 P             1 RES     
     603 OM          26.1368    21.5278    74.3463 OM            1 RES     
     604 OM          23.4572    21.4501    74.5907 OM            1 RES     
     605 OA          24.5844    22.3519    72.4118 OA            1 RES     
     606 CH2         24.5711    20.9855    71.8305 CH2           1 RES     
     607 CH1         25.0889    20.9558    70.5752 CH1           1 RES     
     608 OE          26.2778    20.5731    69.8000 OE            1 RES     
     609 C           26.6349    19.4649    70.7458 C             1 RES     
     610 O           25.9923    19.1752    71.7538 O             1 RES     
     611 CH2         27.6775    18.8030    70.0755 CH2           1 RES     
     612 CH2         28.0910    19.3815    68.7096 CH2           1 RES     
     613 CH2         29.1004    18.4345    68.0344 CH2           1 RES     
     614 CH2         29.5138    19.0131    66.6684 CH2           1 RES     
     615 CH2         30.5232    18.0660    65.9932 CH2           1 RES     
     616 CH2         30.9366    18.6446    64.6272 CH2           1 RES     
     617 CH2         31.9460    17.6975    63.9521 CH2           1 RES     
     618 CH2         32.3595    18.2761    62.5861 CH2           1 RES     
     619 CH2         33.3688    17.3290    61.9109 CH2           1 RES     
     620 CH2         33.7823    17.9076    60.5449 CH2           1 RES     
     621 CH2         34.7917    16.9606    59.8698 CH2           1 RES     
     622 CH2         35.2051    17.5391    58.5038 CH2           1 RES     
     623 CH2         36.2145    16.5921    57.8286 CH2           1 RES     
     624 CH2         36.6279    17.1707    56.4626 CH2           1 RES     
     625 CH2         37.6373    16.2236    55.7875 CH2           1 RES     
     626 CH2         38.0508    16.8022    54.4215 CH2           1 RES     
     627 CH3         39.0142    15.8982    53.7770 CH3           1 RES     
     628 CH2         25.0418    22.4882    70.7200 CH2           1 RES     
     629 OE          25.3473    22.9980    69.3816 OE            1 RES     
     630 C           25.2640    24.4645    69.6855 C             1 RES     
     631 O           25.0034    24.9330    70.7925 O             1 RES     
     632 CH2         25.7402    25.0581    68.5042 CH2           1 RES     
     633 CH2         26.1499    24.0986    67.3714 CH2           1 RES     
     634 CH2         26.8210    24.8974    66.2387 CH2           1 RES     
     635 CH2         27.2307    23.9379    65.1059 CH2           1 RES     
     636 CH2         27.9019    24.7367    63.9732 CH2           1 RES     
     637 CH2         28.3115    23.7772    62.8404 CH2           1 RES     
     638 CH2         28.9827    24.5760    61.7077 CH2           1 RES     
     639 CH2         29.3924    23.6165    60.5749 CH2           1 RES     
     640 CH2         30.0635    24.4153    59.4422 CH2           1 RES     
     641 CH2         30.4732    23.4558    58.3094 CH2           1 RES     
     642 CH2         31.1443    24.2546    57.1767 CH2           1 RES     
     643 CH2         31.5540    23.2951    56.0439 CH2           1 RES     
     644 CH2         32.2251    24.0939    54.9111 CH2           1 RES     
     645 CH2         32.6348    23.1344    53.7784 CH2           1 RES     
     646 CH2         33.3059    23.9331    52.6456 CH2           1 RES     
     647 CH2         33.7156    22.9737    51.5129 CH2           1 RES     
     648 CH3         34.3562    23.7361    50.4316 CH3           1 RES     
     649 CH3         13.4792    40.9273    78.5550 CH3           1 RES     
     650 CH3         13.9009    38.6278    78.2955 CH3           1 RES     
     651 CH3         11.8827    39.3706    78.6931 CH3           1 RES     
     652 NL          13.0423    39.6388    78.1149 NL            1 RES     
     653 CH2         12.6856    39.7350    76.7724 CH2           1 RES     
     654 CH2         14.0514    40.0455    76.1322 CH2           1 RES     
     655 OA          13.8887    40.1905    74.6632 OA            1 RES     
     656 P           14.0910    38.7491    73.9988 P             1 RES     
     657 OM          15.5822    38.2848    74.3463 OM            1 RES     
     658 OM          12.9454    37.8020    74.5907 OM            1 RES     
     659 OA          13.9229    38.8642    72.4118 OA            1 RES     
     660 CH2         14.1167    37.5115    71.8305 CH2           1 RES     
     661 CH1         14.6331    37.5606    70.5752 CH1           1 RES     
     662 OE          15.8663    37.3625    69.8000 OE            1 RES     
     663 C           16.3871    36.3212    70.7458 C             1 RES     
     664 O           15.7959    35.9374    71.7538 O             1 RES     
     665 CH2         17.5180    35.8248    70.0755 CH2           1 RES     
     666 CH2         17.8390    36.4594    68.7096 CH2           1 RES     
     667 CH2         18.9802    35.6762    68.0344 CH2           1 RES     
     668 CH2         19.3012    36.3107    66.6684 CH2           1 RES     
     669 CH2         20.4425    35.5275    65.9932 CH2           1 RES     
     670 CH2         20.7635    36.1620    64.6272 CH2           1 RES     
     671 CH2         21.9047    35.3789    63.9521 CH2           1 RES     
     672 CH2         22.2257    36.0134    62.5861 CH2           1 RES     
     673 CH2         23.3669    35.2302    61.9109 CH2           1 RES     
     674 CH2         23.6879    35.8647    60.5449 CH2           1 RES     
     675 CH2         24.8291    35.0815    59.8698 CH2           1 RES     
     676 CH2         25.1501    35.7161    58.5038 CH2           1 RES     
     677 CH2         26.2914    34.9329    57.8286 CH2           1 RES     
     678 CH2         26.6124    35.5674    56.4626 CH2           1 RES     
     679 CH2         27.7536    34.7842    55.7875 CH2           1 RES     
     680 CH2         28.0746    35.4188    54.4215 CH2           1 RES     
     681 CH3         29.1639    34.6712    53.7770 CH3           1 RES     
     682 CH2         14.3543    39.0682    70.7200 CH2           1 RES     
     683 OE          14.5791    39.6184    69.3816 OE            1 RES     
     684 C           14.2745    41.0553    69.6855 C             1 RES     
     685 O           13.9460    41.4789    70.7925 O             1 RES     
     686 CH2         14.6553    41.7143    68.5042 CH2           1 RES     
     687 CH2         15.2057    40.8279    67.3714 CH2           1 RES     
     688 CH2         15.7480    41.7191    66.2387 CH2           1 RES     
     689 CH2         16.2984    40.8328    65.1059 CH2           1 RES     
     690 CH2         16.8407    41.7240    63.9732 CH2           1 RES     
     691 CH2         17.3910    40.8377    62.8404 CH2           1 RES     
     692 CH2         17.9334    41.7289    61.7077 CH2           1 RES     
     693 CH2         18.4837    40.8426    60.5749 CH2           1 RES     
     694 CH2         19.0261    41.7338    59.4422 CH2           1 RES     
     695 CH2         19.5764    40.8475    58.3094 CH2           1 RES     
     696 CH2         20.1188    41.7387    57.1767 CH2           1 RES     
     697 CH2         20.6691    40.8524    56.0439 CH2           1 RES     
     698 CH2         21.2115    41.7436    54.9111 CH2           1 RES     
     699 CH2         21.7618    40.8573    53.7784 CH2           1 RES     
     700 CH2         22.3041    41.7485    52.6456 CH2           1 RES     
     701 CH2         22.8545    40.8622    51.5129 CH2           1 RES     
     702 CH3         23.3722    41.7129    50.4316 CH3           1 RES     
     703 CH3         40.9273    24.4585    78.5550 CH3           1 RES     
     704 CH3         40.8017    22.1240    78.2955 CH3           1 RES     
     705 CH3         39.0121    23.3165    78.6931 CH3           1 RES     
     706 NL          40.2022    23.3072    78.1149 NL            1 RES     
     707 CH2         39.8778    23.4838    76.7724 CH2           1 RES     
     708 CH2         41.2783    23.4677    76.1322 CH2           1 RES     
     709 OA          41.1539    23.6465    74.6632 OA            1 RES     
     710 P           41.0149    22.1976    73.9988 P             1 RES     
     711 OM          42.3569    21.3987    74.3463 OM            1 RES     
     712 OM          39.6801    21.5435    74.5907 OM            1 RES     
     713 OA          40.8782    22.3487    72.4118 OA            1 RES     
     714 CH2         40.7515    20.9881    71.8305 CH2           1 RES     
     715 CH1         41.2651    20.9155    70.5752 CH1           1 RES     
     716 OE          42.4182    20.4356    69.8000 OE            1 RES     
     717 C           42.6821    19.3016    70.7458 C             1 RES     
     718 O           42.0178    19.0662    71.7538 O             1 RES     
     719 CH2         43.6663    18.5555    70.0755 CH2           1 RES     
     720 CH2         44.1263    19.0978    68.7096 CH2           1 RES     
     721 CH2         45.0537    18.0703    68.0344 CH2           1 RES     
     722 CH2         45.5137    18.6126    66.6684 CH2           1 RES     
     723 CH2         46.4411    17.5851    65.9932 CH2           1 RES     
     724 CH2         46.9011    18.1274    64.6272 CH2           1 RES     
     725 CH2         47.8284    17.0999    63.9521 CH2           1 RES     
     726 CH2         48.2884    17.6422    62.5861 CH2           1 RES     
     727 CH2         49.2158    16.6147    61.9109 CH2           1 RES     
     728 CH2         49.6758    17.1570    60.5449 CH2           1 RES     
     729 CH2         50.6032    16.1295    59.8698 CH2           1 RES     
     730 CH2         51.0632    16.6718    58.5038 CH2           1 RES     
     731 CH2         51.9905    15.6443    57.8286 CH2           1 RES     
     732 CH2         52.4505    16.1866    56.4626 CH2           1 RES     
     733 CH2         53.3779    15.1591    55.7875 CH2           1 RES     
     734 CH2         53.8379    15.7014    54.4215 CH2           1 RES     
     735 CH3         54.7231    14.7206    53.7770 CH3           1 RES     
     736 CH2         41.3453    22.4466    70.7200 CH2           1 RES     
     737 OE          41.6920    22.9293    69.3816 OE            1 RES     
     738 C           41.7305    24.3977    69.6855 C             1 RES     
     739 O           41.5097    24.8861    70.7925 O             1 RES     
     740 CH2         42.2544    24.9498    68.5042 CH2           1 RES     
     741 CH2         42.5831    23.9596    67.3714 CH2           1 RES     
     742 CH2         43.3182    24.7000    66.2387 CH2           1 RES     
     743 CH2         43.6469    23.7098    65.1059 CH2           1 RES     
     744 CH2         44.3819    24.4502    63.9732 CH2           1 RES     
     745 CH2         44.7106    23.4600    62.8404 CH2           1 RES     
     746 CH2         45.4457    24.2004    61.7077 CH2           1 RES     
     747 CH2         45.7744    23.2103    60.5749 CH2           1 RES     
     748 CH2         46.5095    23.9506    59.4422 CH2           1 RES     
     749 CH2         46.8382    22.9605    58.3094 CH2           1 RES     
     750 CH2         47.5732    23.7008    57.1767 CH2           1 RES     
     751 CH2         47.9019    22.7107    56.0439 CH2           1 RES     
     752 CH2         48.6370    23.4511    54.9111 CH2           1 RES     
     753 CH2         48.9657    22.4609    53.7784 CH2           1 RES     
     754 CH2         49.7007    23.2013    52.6456 CH2           1 RES     
     755 CH2         50.0295    22.2111    51.5129 CH2           1 RES     
     756 CH3         50.7311    22.9178    50.4316 CH3           1 RES     
     757 CH3          2.5000    35.4377    78.5550 CH3           1 RES     
     758 CH3          2.0642    33.1408    78.2955 CH3           1 RES     
     759 CH3          0.4496    34.5614    78.6931 CH3           1 RES     
     760 NL           1.6278    34.3934    78.1149 NL            1 RES     
     761 CH2          1.3299    34.6117    76.7724 CH2           1 RES     
     762 CH2          2.7157    34.4090    76.1322 CH2           1 RES     
     763 OA           2.6162    34.6028    74.6632 OA            1 RES     
     764 P            2.2852    33.1854    73.9988 P             1 RES     
     765 OM           3.5087    32.2146    74.3463 OM            1 RES     
     766 OM           0.8751    32.7151    74.5907 OM            1 RES     
     767 OA           2.1699    33.3534    72.4118 OA            1 RES     
     768 CH2          1.8629    32.0218    71.8305 CH2           1 RES     
     769 CH1          2.3623    31.8814    70.5752 CH1           1 RES     
     770 OE           3.4411    31.2520    69.8000 OE            1 RES     
     771 C            3.5514    30.0929    70.7458 C             1 RES     
     772 O            2.8616    29.9481    71.7538 O             1 RES     
     773 CH2          4.4273    29.2222    70.0755 CH2           1 RES     
     774 CH2          4.9555    29.6983    68.7096 CH2           1 RES     
     775 CH2          5.7375    28.5563    68.0344 CH2           1 RES     
     776 CH2          6.2657    29.0324    66.6684 CH2           1 RES     
     777 CH2          7.0478    27.8904    65.9932 CH2           1 RES     
     778 CH2          7.5760    28.3665    64.6272 CH2           1 RES     
     779 CH2          8.3580    27.2245    63.9521 CH2           1 RES     
     780 CH2          8.8863    27.7006    62.5861 CH2           1 RES     
     781 CH2          9.6683    26.5586    61.9109 CH2           1 RES     
     782 CH2         10.1965    27.0347    60.5449 CH2           1 RES     
     783 CH2         10.9786    25.8927    59.8698 CH2           1 RES     
     784 CH2         11.5068    26.3688    58.5038 CH2           1 RES     
     785 CH2         12.2888    25.2268    57.8286 CH2           1 RES     
     786 CH2         12.8170    25.7029    56.4626 CH2           1 RES     
     787 CH2         13.5991    24.5609    55.7875 CH2           1 RES     
     788 CH2         14.1273    25.0370    54.4215 CH2           1 RES     
     789 CH3         14.8738    23.9469    53.7770 CH3           1 RES     
     790 CH2          2.6459    33.3881    70.7200 CH2           1 RES     
     791 OE           3.0539    33.8202    69.3816 OE            1 RES     
     792 C            3.2879    35.2704    69.6855 C             1 RES     
     793 O            3.1342    35.7839    70.7925 O             1 RES     
     794 CH2          3.8807    35.7476    68.5042 CH2           1 RES     
     795 CH2          4.0745    34.7225    67.3714 CH2           1 RES     
     796 CH2          4.9017    35.3582    66.2387 CH2           1 RES     
     797 CH2          5.0954    34.3330    65.1059 CH2           1 RES     
     798 CH2          5.9226    34.9688    63.9732 CH2           1 RES     
     799 CH2          6.1163    33.9436    62.8404 CH2           1 RES     
     800 CH2          6.9436    34.5793    61.7077 CH2           1 RES     
     801 CH2          7.1373    33.5542    60.5749 CH2           1 RES     
     802 CH2          7.9645    34.1899    59.4422 CH2           1 RES     
     803 CH2          8.1582    33.1648    58.3094 CH2           1 RES     
     804 CH2          8.9855    33.8005    57.1767 CH2           1 RES     
     805 CH2          9.1792    32.7753    56.0439 CH2           1 RES     
     806 CH2         10.0064    33.4111    54.9111 CH2           1 RES     
     807 CH2         10.2001    32.3859    53.7784 CH2           1 RES     
     808 CH2         11.0274    33.0216    52.6456 CH2           1 RES     
     809 CH2         11.2211    31.9965    51.5129 CH2           1 RES     
     810 CH3         12.0107    32.6033    50.4316 CH3           1 RES     
     811 CH3         40.9273    35.4377    78.5550 CH3           1 RES     
     812 CH3         40.5358    33.1328    78.2955 CH3           1 RES     
     813 CH3         38.8942    34.5221    78.6931 CH3           1 RES     
     814 NL          40.0754    34.3769    78.1149 NL            1 RES     
     815 CH2         39.7733    34.5894    76.7724 CH2           1 RES     
     816 CH2         41.1628    34.4133    76.1322 CH2           1 RES     
     817 OA          41.0596    34.6052    74.6632 OA            1 RES     
     818 P           40.7559    33.1817    73.9988 P             1 RES     
     819 OM          41.9978    32.2346    74.3463 OM            1 RES     
     820 OM          39.3551    32.6843    74.5907 OM            1 RES     
     821 OA          40.6374    33.3474    72.4118 OA            1 RES     
     822 CH2         40.3561    32.0102    71.8305 CH2           1 RES     
     823 CH1         40.8580    31.8794    70.5752 CH1           1 RES     
     824 OE          41.9487    31.2708    69.8000 OE            1 RES     
     825 C           42.0813    30.1141    70.7458 C             1 RES     
     826 O           41.3944    29.9561    71.7538 O             1 RES     
     827 CH2         42.9738    29.2604    70.0755 CH2           1 RES     
     828 CH2         43.4927    29.7466    68.7096 CH2           1 RES     
     829 CH2         44.2966    28.6198    68.0344 CH2           1 RES     
     830 CH2         44.8156    29.1060    66.6684 CH2           1 RES     
     831 CH2         45.6194    27.9793    65.9932 CH2           1 RES     
     832 CH2         46.1384    28.4654    64.6272 CH2           1 RES     
     833 CH2         46.9423    27.3387    63.9521 CH2           1 RES     
     834 CH2         47.4612    27.8249    62.5861 CH2           1 RES     
     835 CH2         48.2651    26.6981    61.9109 CH2           1 RES     
     836 CH2         48.7841    27.1843    60.5449 CH2           1 RES     
     837 CH2         49.5879    26.0575    59.8698 CH2           1 RES     
     838 CH2         50.1069    26.5437    58.5038 CH2           1 RES     
     839 CH2         50.9107    25.4170    57.8286 CH2           1 RES     
     840 CH2         51.4297    25.9031    56.4626 CH2           1 RES     
     841 CH2         52.2336    24.7764    55.7875 CH2           1 RES     
     842 CH2         52.7525    25.2626    54.4215 CH2           1 RES     
     843 CH3         53.5199    24.1870    53.7770 CH3           1 RES     
     844 CH2         41.1126    33.3913    70.7200 CH2           1 RES     
     845 OE          41.5122    33.8312    69.3816 OE            1 RES     
     846 C           41.7183    35.2856    69.6855 C             1 RES     
     847 O           41.5548    35.7960    70.7925 O             1 RES     
     848 CH2         42.3018    35.7741    68.5042 CH2           1 RES     
     849 CH2         42.5152    34.7529    67.3714 CH2           1 RES     
     850 CH2         43.3301    35.4044    66.2387 CH2           1 RES     
     851 CH2         43.5435    34.3832    65.1059 CH2           1 RES     
     852 CH2         44.3583    35.0347    63.9732 CH2           1 RES     
     853 CH2         44.5717    34.0135    62.8404 CH2           1 RES     
     854 CH2         45.3866    34.6650    61.7077 CH2           1 RES     
     855 CH2         45.6000    33.6437    60.5749 CH2           1 RES     
     856 CH2         46.4148    34.2953    59.4422 CH2           1 RES     
     857 CH2         46.6282    33.2740    58.3094 CH2           1 RES     
     858 CH2         47.4431    33.9255    57.1767 CH2           1 RES     
     859 CH2         47.6565    32.9043    56.0439 CH2           1 RES     
     860 CH2         48.4713    33.5558    54.9111 CH2           1 RES     
     861 CH2         48.6847    32.5346    53.7784 CH2           1 RES     
     862 CH2         49.4996    33.1861    52.6456 CH2           1 RES     
     863 CH2         49.7130    32.1649    51.5129 CH2           1 RES     
     864 CH3         50.4908    32.7868    50.4316 CH3           1 RES     
     865 CH3         35.4377     7.9896    78.5550 CH3           1 RES     
     866 CH3         35.5598     5.6549    78.2955 CH3           1 RES     
     867 CH3         33.6541     6.6514    78.6931 CH3           1 RES     
     868 NL          34.8385     6.7681    78.1149 NL            1 RES     
     869 CH2         34.4972     6.9094    76.7724 CH2           1 RES     
     870 CH2         35.8915     7.0415    76.1322 CH2           1 RES     
     871 OA          35.7489     7.2062    74.6632 OA            1 RES     
     872 P           35.7640     5.7507    73.9988 P             1 RES     
     873 OM          37.1830     5.0983    74.3463 OM            1 RES     
     874 OM          34.5059     4.9590    74.5907 OM            1 RES     
     875 OA          35.6121     5.8865    72.4118 OA            1 RES     
     876 CH2         35.6301     4.5201    71.8305 CH2           1 RES     
     877 CH1         36.1485     4.5023    70.5752 CH1           1 RES     
     878 OE          37.3459     4.1471    69.8000 OE            1 RES     
     879 C           37.7283     3.0474    70.7458 C             1 RES     
     880 O           37.0926     2.7430    71.7538 O             1 RES     
     881 CH2         38.7860     2.4096    70.0755 CH2           1 RES     
     882 CH2         39.1860     2.9975    68.7096 CH2           1 RES     
     883 CH2         40.2169     2.0739    68.0344 CH2           1 RES     
     884 CH2         40.6169     2.6619    66.6684 CH2           1 RES     
     885 CH2         41.6478     1.7383    65.9932 CH2           1 RES     
     886 CH2         42.0478     2.3262    64.6272 CH2           1 RES     
     887 CH2         43.0787     1.4026    63.9521 CH2           1 RES     
     888 CH2         43.4787     1.9905    62.5861 CH2           1 RES     
     889 CH2         44.5096     1.0669    61.9109 CH2           1 RES     
     890 CH2         44.9097     1.6549    60.5449 CH2           1 RES     
     891 CH2         45.9405     0.7313    59.8698 CH2           1 RES     
     892 CH2         46.3406     1.3192    58.5038 CH2           1 RES     
     893 CH2         47.3715     0.3956    57.8286 CH2           1 RES     
     894 CH2         47.7715     0.9835    56.4626 CH2           1 RES     
     895 CH2         48.8024     0.0599    55.7875 CH2           1 RES     
     896 CH2         49.2024     0.6478    54.4215 CH2           1 RES     
     897 CH3         50.1864    -0.2338    53.7770 CH3           1 RES     
     898 CH2         36.0662     6.0333    70.7200 CH2           1 RES     
     899 OE          36.3599     6.5499    69.3816 OE            1 RES     
     900 C           36.2428     8.0142    69.6855 C             1 RES     
     901 O           35.9716     8.4765    70.7925 O             1 RES     
     902 CH2         36.7053     8.6186    68.5042 CH2           1 RES     
     903 CH2         37.1370     7.6688    67.3714 CH2           1 RES     
     904 CH2         37.7896     8.4828    66.2387 CH2           1 RES     
     905 CH2         38.2212     7.5329    65.1059 CH2           1 RES     
     906 CH2         38.8738     8.3469    63.9732 CH2           1 RES     
     907 CH2         39.3054     7.3971    62.8404 CH2           1 RES     
     908 CH2         39.9580     8.2111    61.7077 CH2           1 RES     
     909 CH2         40.3896     7.2613    60.5749 CH2           1 RES     
     910 CH2         41.0422     8.0753    59.4422 CH2           1 RES     
     911 CH2         41.4739     7.1255    58.3094 CH2           1 RES     
     912 CH2         42.1265     7.9395    57.1767 CH2           1 RES     
     913 CH2         42.5581     6.9897    56.0439 CH2           1 RES     
     914 CH2         43.2107     7.8037    54.9111 CH2           1 RES     
     915 CH2         43.6423     6.8538    53.7784 CH2           1 RES     
     916 CH2         44.2949     7.6678    52.6456 CH2           1 RES     
     917 CH2         44.7265     6.7180    51.5129 CH2           1 RES     
     918 CH3         45.3495     7.4950    50.4316 CH3           1 RES     
     919 CH3         29.9481    29.9481    78.5550 CH3           1 RES     
     920 CH3         29.5995    27.6363    78.2955 CH3           1 RES     
     921 CH3         27.9323    28.9948    78.6931 CH3           1 RES     
     922 NL          29.1160    28.8716    78.1149 NL            1 RES     
     923 CH2         28.8100    29.0785    76.7724 CH2           1 RES     
     924 CH2         30.2025    28.9282    76.1322 CH2           1 RES     
     925 OA          30.0958    29.1182    74.6632 OA            1 RES     
     926 P           29.8187    27.6893    73.9988 P             1 RES     
     927 OM          31.0780    26.7655    74.3463 OM            1 RES     
     928 OM          28.4274    27.1659    74.5907 OM            1 RES     
     929 OA          29.6971    27.8528    72.4118 OA            1 RES     
     930 CH2         29.4407    26.5105    71.8305 CH2           1 RES     
     931 CH1         29.9450    26.3891    70.5752 CH1           1 RES     
     932 OE          31.0468    25.8009    69.8000 OE            1 RES     
     933 C           31.2009    24.6469    70.7458 C             1 RES     
     934 O           30.5170    24.4761    71.7538 O             1 RES     
     935 CH2         32.1091    23.8099    70.0755 CH2           1 RES     
     936 CH2         32.6189    24.3056    68.7096 CH2           1 RES     
     937 CH2         33.4436    23.1940    68.0344 CH2           1 RES     
     938 CH2         33.9534    23.6898    66.6684 CH2           1 RES     
     939 CH2         34.7781    22.5782    65.9932 CH2           1 RES     
     940 CH2         35.2879    23.0739    64.6272 CH2           1 RES     
     941 CH2         36.1126    21.9623    63.9521 CH2           1 RES     
     942 CH2         36.6224    22.4581    62.5861 CH2           1 RES     
     943 CH2         37.4471    21.3465    61.9109 CH2           1 RES     
     944 CH2         37.9569    21.8422    60.5449 CH2           1 RES     
     945 CH2         38.7816    20.7306    59.8698 CH2           1 RES     
     946 CH2         39.2915    21.2263    58.5038 CH2           1 RES     
     947 CH2         40.1161    20.1148    57.8286 CH2           1 RES     
     948 CH2         40.6260    20.6105    56.4626 CH2           1 RES     
     949 CH2         41.4507    19.4989    55.7875 CH2           1 RES     
     950 CH2         41.9605    19.9946    54.4215 CH2           1 RES     
     951 CH3         42.7477    18.9336    53.7770 CH3           1 RES     
     952 CH2         30.1714    27.9055    70.7200 CH2           1 RES     
     953 OE          30.5628    28.3527    69.3816 OE            1 RES     
     954 C           30.7418    29.8107    69.6855 C             1 RES     
     955 O           30.5687    30.3180    70.7925 O             1 RES     
     956 CH2         31.3161    30.3100    68.5042 CH2           1 RES     
     957 CH2         31.5485    29.2929    67.3714 CH2           1 RES     
     958 CH2         32.3511    29.9595    66.2387 CH2           1 RES     
     959 CH2         32.5834    28.9424    65.1059 CH2           1 RES     
     960 CH2         33.3860    29.6090    63.9732 CH2           1 RES     
     961 CH2         33.6184    28.5919    62.8404 CH2           1 RES     
     962 CH2         34.4210    29.2584    61.7077 CH2           1 RES     
     963 CH2         34.6533    28.2413    60.5749 CH2           1 RES     
     964 CH2         35.4559    28.9079    59.4422 CH2           1 RES     
     965 CH2         35.6883    27.8908    58.3094 CH2           1 RES     
     966 CH2         36.4909    28.5574    57.1767 CH2           1 RES     
     967 CH2         36.7232    27.5403    56.0439 CH2           1 RES     
     968 CH2         37.5258    28.2068    54.9111 CH2           1 RES     
     969 CH2         37.7582    27.1897    53.7784 CH2           1 RES     
     970 CH2         38.5607    27.8563    52.6456 CH2           1 RES     
     971 CH2         38.7931    26.8392    51.5129 CH2           1 RES     
     972 CH3         39.5592    27.4755    50.4316 CH3           1 RES     
     973 CH3         18.9689     7.9896    78.5550 CH3           1 RES     
     974 CH3         20.2263     6.0187    78.2955 CH3           1 RES     
     975 CH3         18.0770     5.9460    78.6931 CH3           1 RES     
     976 NL          19.0498     6.6315    78.1149 NL            1 RES     
     977 CH2         18.6833     6.5861    76.7724 CH2           1 RES     
     978 CH2         19.8312     7.3886    76.1322 CH2           1 RES     
     979 OA          19.6259     7.4615    74.6632 OA            1 RES     
     980 P           20.3566     6.2027    73.9988 P             1 RES     
     981 OM          21.9128     6.3348    74.3463 OM            1 RES     
     982 OM          19.6525     4.8936    74.5907 OM            1 RES     
     983 OA          20.1575     6.2459    72.4118 OA            1 RES     
     984 CH2         20.8469     5.0661    71.8305 CH2           1 RES     
     985 CH1         21.3067     5.3062    70.5752 CH1           1 RES     
     986 OE          22.5236     5.5876    69.8000 OE            1 RES     
     987 C           23.3985     4.8194    70.7458 C             1 RES     
     988 O           22.9956     4.2411    71.7538 O             1 RES     
     989 CH2         24.6331     4.7860    70.0755 CH2           1 RES     
     990 CH2         24.6913     5.4947    68.7096 CH2           1 RES     
     991 CH2         26.0435     5.1995    68.0344 CH2           1 RES     
     992 CH2         26.1017     5.9083    66.6684 CH2           1 RES     
     993 CH2         27.4539     5.6131    65.9932 CH2           1 RES     
     994 CH2         27.5121     6.3218    64.6272 CH2           1 RES     
     995 CH2         28.8643     6.0266    63.9521 CH2           1 RES     
     996 CH2         28.9224     6.7353    62.5861 CH2           1 RES     
     997 CH2         30.2747     6.4401    61.9109 CH2           1 RES     
     998 CH2         30.3328     7.1488    60.5449 CH2           1 RES     
     999 CH2         31.6851     6.8536    59.8698 CH2           1 RES     
    1000 CH2         31.7432     7.5623    58.5038 CH2           1 RES     
    1001 CH2         33.0955     7.2671    57.8286 CH2           1 RES     
    1002 CH2         33.1536     7.9759    56.4626 CH2           1 RES     
    1003 CH2         34.5059     7.6806    55.7875 CH2           1 RES     
    1004 CH2         34.5640     8.3894    54.4215 CH2           1 RES     
    1005 CH3         35.8548     8.1076    53.7770 CH3           1 RES     
    1006 CH2         20.4802     6.5975    70.7200 CH2           1 RES     
    1007 OE          20.4810     7.1918    69.3816 OE            1 RES     
    1008 C           19.6572     8.4080    69.6855 C             1 RES     
    1009 O           19.1932     8.6764    70.7925 O             1 RES     
    1010 CH2         19.7616     9.1618    68.5042 CH2           1 RES     
    1011 CH2         20.6054     8.5483    67.3714 CH2           1 RES     
    1012 CH2         20.7718     9.5783    66.2387 CH2           1 RES     
    1013 CH2         21.6156     8.9648    65.1059 CH2           1 RES     
    1014 CH2         21.7820     9.9947    63.9732 CH2           1 RES     
    1015 CH2         22.6259     9.3812    62.8404 CH2           1 RES     
    1016 CH2         22.7922    10.4112    61.7077 CH2           1 RES     
    1017 CH2         23.6361     9.7977    60.5749 CH2           1 RES     
    1018 CH2         23.8025    10.8276    59.4422 CH2           1 RES     
    1019 CH2         24.6463    10.2141    58.3094 CH2           1 RES     
    1020 CH2         24.8127    11.2440    57.1767 CH2           1 RES     
    1021 CH2         25.6566    10.6305    56.0439 CH2           1 RES     
    1022 CH2         25.8229    11.6605    54.9111 CH2           1 RES     
    1023 CH2         26.6668    11.0470    53.7784 CH2           1 RES     
    1024 CH2         26.8332    12.0769    52.6456 CH2           1 RES     
    1025 CH2         27.6770    11.4634    51.5129 CH2           1 RES     
    1026 CH3         27.8358    12.4465    50.4316 CH3           1 RES     
    1027 CH3          2.5000    24.4585    78.5550 CH3           1 RES     
    1028 CH3          3.8004    22.5156    78.2955 CH3           1 RES     
    1029 CH3          1.6532    22.3957    78.6931 CH3           1 RES     
    1030 NL           2.6108    23.1024    78.1149 NL            1 RES     
    1031 CH2          2.2453    23.0490    76.7724 CH2           1 RES     
    1032 CH2          3.3753    23.8765    76.1322 CH2           1 RES     
    1033 OA           3.1685    23.9449    74.6632 OA            1 RES     
    1034 P            3.9267    22.7025    73.9988 P             1 RES     
    1035 OM           5.4796    22.8687    74.3463 OM            1 RES     
    1036 OM           3.2515    21.3782    74.5907 OM            1 RES     
    1037 OA           3.7267    22.7413    72.4118 OA            1 RES     
    1038 CH2          4.4419    21.5769    71.8305 CH2           1 RES     
    1039 CH1          4.8963    21.8271    70.5752 CH1           1 RES     
    1040 OE           6.1067    22.1351    69.8000 OE            1 RES     
    1041 C            6.9983    21.3864    70.7458 C             1 RES     
    1042 O            6.6081    20.7994    71.7538 O             1 RES     
    1043 CH2          8.2333    21.3801    70.0755 CH2           1 RES     
    1044 CH2          8.2759    22.0900    68.7096 CH2           1 RES     
    1045 CH2          9.6343    21.8245    68.0344 CH2           1 RES     
    1046 CH2          9.6768    22.5344    66.6684 CH2           1 RES     
    1047 CH2         11.0352    22.2689    65.9932 CH2           1 RES     
    1048 CH2         11.0778    22.9788    64.6272 CH2           1 RES     
    1049 CH2         12.4362    22.7134    63.9521 CH2           1 RES     
    1050 CH2         12.4788    23.4232    62.5861 CH2           1 RES     
    1051 CH2         13.8372    23.1578    61.9109 CH2           1 RES     
    1052 CH2         13.8797    23.8676    60.5449 CH2           1 RES     
    1053 CH2         15.2381    23.6022    59.8698 CH2           1 RES     
    1054 CH2         15.2807    24.3120    58.5038 CH2           1 RES     
    1055 CH2         16.6391    24.0466    57.8286 CH2           1 RES     
    1056 CH2         16.6816    24.7564    56.4626 CH2           1 RES     
    1057 CH2         18.0401    24.4910    55.7875 CH2           1 RES     
    1058 CH2         18.0826    25.2009    54.4215 CH2           1 RES     
    1059 CH3         19.3793    24.9475    53.7770 CH3           1 RES     
    1060 CH2          4.0416    23.0999    70.7200 CH2           1 RES     
    1061 OE           4.0293    23.6941    69.3816 OE            1 RES     
    1062 C            3.1790    24.8919    69.6855 C             1 RES     
    1063 O            2.7092    25.1500    70.7925 O             1 RES     
    1064 CH2          3.2667    25.6478    68.5042 CH2           1 RES     
    1065 CH2          4.1239    25.0530    67.3714 CH2           1 RES     
    1066 CH2          4.2676    26.0864    66.2387 CH2           1 RES     
    1067 CH2          5.1247    25.4916    65.1059 CH2           1 RES     
    1068 CH2          5.2684    26.5249    63.9732 CH2           1 RES     
    1069 CH2          6.1255    25.9301    62.8404 CH2           1 RES     
    1070 CH2          6.2693    26.9635    61.7077 CH2           1 RES     
    1071 CH2          7.1264    26.3686    60.5749 CH2           1 RES     
    1072 CH2          7.2701    27.4020    59.4422 CH2           1 RES     
    1073 CH2          8.1272    26.8072    58.3094 CH2           1 RES     
    1074 CH2          8.2709    27.8405    57.1767 CH2           1 RES     
    1075 CH2          9.1280    27.2457    56.0439 CH2           1 RES     
    1076 CH2          9.2718    28.2791    54.9111 CH2           1 RES     
    1077 CH2         10.1289    27.6843    53.7784 CH2           1 RES     
    1078 CH2         10.2726    28.7176    52.6456 CH2           1 RES     
    1079 CH2         11.1297    28.1228    51.5129 CH2           1 RES     
    1080 CH3         11.2669    29.1092    50.4316 CH3           1 RES     
    1081 CH3         13.4792    29.9481    78.5550 CH3           1 RES     
    1082 CH3         13.6359    27.6155    78.2955 CH3           1 RES     
    1083 CH3         11.7156    28.5836    78.6931 CH3           1 RES     
    1084 NL          12.8982    28.7178    78.1149 NL            1 RES     
    1085 CH2         12.5548    28.8541    76.7724 CH2           1 RES     
    1086 CH2         13.9471    29.0068    76.1322 CH2           1 RES     
    1087 OA          13.8020    29.1693    74.6632 OA            1 RES     
    1088 P           13.8386    27.7143    73.9988 P             1 RES     
    1089 OM          15.2671    27.0829    74.3463 OM            1 RES     
    1090 OM          12.5924    26.9040    74.5907 OM            1 RES     
    1091 OA          13.6847    27.8478    72.4118 OA            1 RES     
    1092 CH2         13.7230    26.4818    71.8305 CH2           1 RES     
    1093 CH1         14.2416    26.4717    70.5752 CH1           1 RES     
    1094 OE          15.4441    26.1343    69.8000 OE            1 RES     
    1095 C           15.8428    25.0403    70.7458 C             1 RES     
    1096 O           15.2116    24.7265    71.7538 O             1 RES     
    1097 CH2         16.9097    24.4183    70.0755 CH2           1 RES     
    1098 CH2         17.3010    25.0120    68.7096 CH2           1 RES     
    1099 CH2         18.3454    24.1038    68.0344 CH2           1 RES     
    1100 CH2         18.7367    24.6976    66.6684 CH2           1 RES     
    1101 CH2         19.7812    23.7894    65.9932 CH2           1 RES     
    1102 CH2         20.1725    24.3831    64.6272 CH2           1 RES     
    1103 CH2         21.2169    23.4749    63.9521 CH2           1 RES     
    1104 CH2         21.6082    24.0687    62.5861 CH2           1 RES     
    1105 CH2         22.6526    23.1605    61.9109 CH2           1 RES     
    1106 CH2         23.0439    23.7542    60.5449 CH2           1 RES     
    1107 CH2         24.0884    22.8460    59.8698 CH2           1 RES     
    1108 CH2         24.4797    23.4398    58.5038 CH2           1 RES     
    1109 CH2         25.5241    22.5315    57.8286 CH2           1 RES     
    1110 CH2         25.9154    23.1253    56.4626 CH2           1 RES     
    1111 CH2         26.9598    22.2171    55.7875 CH2           1 RES     
    1112 CH2         27.3511    22.8109    54.4215 CH2           1 RES     
    1113 CH3         28.3481    21.9439    53.7770 CH3           1 RES     
    1114 CH2         14.1366    28.0013    70.7200 CH2           1 RES     
    1115 OE          14.4226    28.5222    69.3816 OE            1 RES     
    1116 C           14.2839    29.9846    69.6855 C             1 RES     
    1117 O           14.0058    30.4428    70.7925 O             1 RES     
    1118 CH2         14.7374    30.5957    68.5042 CH2           1 RES     
    1119 CH2         15.1831    29.6524    67.3714 CH2           1 RES     
    1120 CH2         15.8235    30.4760    66.2387 CH2           1 RES     
    1121 CH2         16.2692    29.5327    65.1059 CH2           1 RES     
    1122 CH2         16.9097    30.3562    63.9732 CH2           1 RES     
    1123 CH2         17.3553    29.4129    62.8404 CH2           1 RES     
    1124 CH2         17.9958    30.2365    61.7077 CH2           1 RES     
    1125 CH2         18.4414    29.2932    60.5749 CH2           1 RES     
    1126 CH2         19.0819    30.1167    59.4422 CH2           1 RES     
    1127 CH2         19.5275    29.1734    58.3094 CH2           1 RES     
    1128 CH2         20.1680    29.9970    57.1767 CH2           1 RES     
    1129 CH2         20.6136    29.0536    56.0439 CH2           1 RES     
    1130 CH2         21.2541    29.8772    54.9111 CH2           1 RES     
    1131 CH2         21.6998    28.9339    53.7784 CH2           1 RES     
    1132 CH2         22.3402    29.7575    52.6456 CH2           1 RES     
    1133 CH2         22.7859    28.8141    51.5129 CH2           1 RES     
    1134 CH3         23.3972    29.6003    50.4316 CH3           1 RES     
    1135 CH3         38.2896    27.9851    56.4422 CH3           1 RES     
    1136 CH2         38.5391    27.9870    57.8908 CH2           1 RES     
    1137 CH2         37.2326    27.6608    58.6379 CH2           1 RES     
    1138 CH2         37.4940    27.6627    60.1556 CH2           1 RES     
    1139 CH2         36.1874    27.3365    60.9026 CH2           1 RES     
    1140 CH2         36.4488    27.3384    62.4203 CH2           1 RES     
    1141 CH2         35.1422    27.0122    63.1674 CH2           1 RES     
    1142 CH2         35.4036    27.0141    64.6850 CH2           1 RES     
    1143 CH2         34.0971    26.6879    65.4321 CH2           1 RES     
    1144 CH2         34.3584    26.6899    66.9497 CH2           1 RES     
    1145 CH2         33.0519    26.3636    67.6968 CH2           1 RES     
    1146 CH2         33.3133    26.3656    69.2144 CH2           1 RES     
    1147 CH2         32.0067    26.0393    69.9615 CH2           1 RES     
    1148 CH2         32.2681    26.0413    71.4792 CH2           1 RES     
    1149 CH2         30.9615    25.7150    72.2262 CH2           1 RES     
    1150 CH2         31.2229    25.7170    73.7439 CH2           1 RES     
    1151 OA          29.9970    25.4109    74.4449 OA            1 RES     
    1152 H           29.9481    24.4585    74.5550 H             1 RES     
    1153 CH3         32.2694    18.0627    56.4422 CH3           1 RES     
    1154 CH2         32.5165    18.0971    57.8908 CH2           1 RES     
    1155 CH2         31.2636    17.6034    58.6379 CH2           1 RES     
    1156 CH2         31.5225    17.6394    60.1556 CH2           1 RES     
    1157 CH2         30.2696    17.1457    60.9026 CH2           1 RES     
    1158 CH2         30.5285    17.1817    62.4203 CH2           1 RES     
    1159 CH2         29.2756    16.6880    63.1674 CH2           1 RES     
    1160 CH2         29.5345    16.7240    64.6850 CH2           1 RES     
    1161 CH2         28.2816    16.2303    65.4321 CH2           1 RES     
    1162 CH2         28.5405    16.2663    66.9497 CH2           1 RES     
    1163 CH2         27.2876    15.7726    67.6968 CH2           1 RES     
    1164 CH2         27.5465    15.8086    69.2144 CH2           1 RES     
    1165 CH2         26.2936    15.3148    69.9615 CH2           1 RES     
    1166 CH2         26.5525    15.3508    71.4792 CH2           1 RES     
    1167 CH2         25.2996    14.8571    72.2262 CH2           1 RES     
    1168 CH2         25.5584    14.8931    73.7439 CH2           1 RES     
    1169 OA          24.3828    14.4299    74.4449 OA            1 RES     
    1170 H           24.4585    13.4792    74.5550 H             1 RES     
    1171 CH3         37.8985    45.2644    56.4422 CH3           1 RES     
    1172 CH2         38.1466    45.2910    57.8908 CH2           1 RES     
    1173 CH2         36.8788    44.8367    58.6379 CH2           1 RES     
    1174 CH2         37.1387    44.8646    60.1556 CH2           1 RES     
    1175 CH2         35.8710    44.4103    60.9026 CH2           1 RES     
    1176 CH2         36.1309    44.4382    62.4203 CH2           1 RES     
    1177 CH2         34.8632    43.9839    63.1674 CH2           1 RES     
    1178 CH2         35.1231    44.0118    64.6850 CH2           1 RES     
    1179 CH2         33.8553    43.5575    65.4321 CH2           1 RES     
    1180 CH2         34.1152    43.5854    66.9497 CH2           1 RES     
    1181 CH2         32.8475    43.1311    67.6968 CH2           1 RES     
    1182 CH2         33.1074    43.1590    69.2144 CH2           1 RES     
    1183 CH2         31.8397    42.7047    69.9615 CH2           1 RES     
    1184 CH2         32.0996    42.7326    71.4792 CH2           1 RES     
    1185 CH2         30.8318    42.2783    72.2262 CH2           1 RES     
    1186 CH2         31.0917    42.3061    73.7439 CH2           1 RES     
    1187 OA          29.9022    41.8799    74.4449 OA            1 RES     
    1188 H           29.9481    40.9273    74.5550 H             1 RES     
    1189 CH3         28.0249    41.0045    56.4422 CH3           1 RES     
    1190 CH2         28.2563    40.9110    57.8908 CH2           1 RES     
    1191 CH2         26.9241    41.1080    58.6379 CH2           1 RES     
    1192 CH2         27.1664    41.0100    60.1556 CH2           1 RES     
    1193 CH2         25.8343    41.2070    60.9026 CH2           1 RES     
    1194 CH2         26.0766    41.1091    62.4203 CH2           1 RES     
    1195 CH2         24.7444    41.3060    63.1674 CH2           1 RES     
    1196 CH2         24.9868    41.2081    64.6850 CH2           1 RES     
    1197 CH2         23.6546    41.4051    65.4321 CH2           1 RES     
    1198 CH2         23.8969    41.3071    66.9497 CH2           1 RES     
    1199 CH2         22.5648    41.5041    67.6968 CH2           1 RES     
    1200 CH2         22.8071    41.4062    69.2144 CH2           1 RES     
    1201 CH2         21.4749    41.6031    69.9615 CH2           1 RES     
    1202 CH2         21.7173    41.5052    71.4792 CH2           1 RES     
    1203 CH2         20.3851    41.7021    72.2262 CH2           1 RES     
    1204 CH2         20.6274    41.6042    73.7439 CH2           1 RES     
    1205 OA          19.3774    41.7890    74.4449 OA            1 RES     
    1206 H           18.9689    40.9273    74.5550 H             1 RES     
    1207 CH3         44.4749    36.0273    56.4422 CH3           1 RES     
    1208 CH2         44.7112    35.9471    57.8908 CH2           1 RES     
    1209 CH2         43.3700    36.0683    58.6379 CH2           1 RES     
    1210 CH2         43.6175    35.9842    60.1556 CH2           1 RES     
    1211 CH2         42.2763    36.1055    60.9026 CH2           1 RES     
    1212 CH2         42.5238    36.0214    62.4203 CH2           1 RES     
    1213 CH2         41.1826    36.1427    63.1674 CH2           1 RES     
    1214 CH2         41.4301    36.0586    64.6850 CH2           1 RES     
    1215 CH2         40.0889    36.1799    65.4321 CH2           1 RES     
    1216 CH2         40.3364    36.0958    66.9497 CH2           1 RES     
    1217 CH2         38.9952    36.2171    67.6968 CH2           1 RES     
    1218 CH2         39.2427    36.1330    69.2144 CH2           1 RES     
    1219 CH2         37.9015    36.2543    69.9615 CH2           1 RES     
    1220 CH2         38.1490    36.1702    71.4792 CH2           1 RES     
    1221 CH2         36.8078    36.2914    72.2262 CH2           1 RES     
    1222 CH2         37.0553    36.2074    73.7439 CH2           1 RES     
    1223 OA          35.7969    36.3212    74.4449 OA            1 RES     
    1224 H           35.4377    35.4377    74.5550 H             1 RES     
    1225 CH3         33.5036    18.5177    56.4422 CH3           1 RES     
    1226 CH2         33.7291    18.4109    57.8908 CH2           1 RES     
    1227 CH2         32.4107    18.6852    58.6379 CH2           1 RES     
    1228 CH2         32.6469    18.5733    60.1556 CH2           1 RES     
    1229 CH2         31.3285    18.8476    60.9026 CH2           1 RES     
    1230 CH2         31.5647    18.7357    62.4203 CH2           1 RES     
    1231 CH2         30.2463    19.0100    63.1674 CH2           1 RES     
    1232 CH2         30.4825    18.8981    64.6850 CH2           1 RES     
    1233 CH2         29.1641    19.1725    65.4321 CH2           1 RES     
    1234 CH2         29.4003    19.0606    66.9497 CH2           1 RES     
    1235 CH2         28.0819    19.3349    67.6968 CH2           1 RES     
    1236 CH2         28.3181    19.2230    69.2144 CH2           1 RES     
    1237 CH2         26.9997    19.4973    69.9615 CH2           1 RES     
    1238 CH2         27.2359    19.3854    71.4792 CH2           1 RES     
    1239 CH2         25.9175    19.6598    72.2262 CH2           1 RES     
    1240 CH2         26.1537    19.5479    73.7439 CH2           1 RES     
    1241 OA          24.9166    19.8053    74.4449 OA            1 RES     
    1242 H           24.4585    18.9689    74.5550 H             1 RES     
    1243 CH3         49.6858     4.8040    56.4422 CH3           1 RES     
    1244 CH2         49.9330     4.7703    57.8908 CH2           1 RES     
    1245 CH2         48.5933     4.6333    58.6379 CH2           1 RES     
    1246 CH2         48.8523     4.5981    60.1556 CH2           1 RES     
    1247 CH2         47.5126     4.4610    60.9026 CH2           1 RES     
    1248 CH2         47.7716     4.4258    62.4203 CH2           1 RES     
    1249 CH2         46.4320     4.2887    63.1674 CH2           1 RES     
    1250 CH2         46.6910     4.2535    64.6850 CH2           1 RES     
    1251 CH2         45.3513     4.1164    65.4321 CH2           1 RES     
    1252 CH2         45.6103     4.0812    66.9497 CH2           1 RES     
    1253 CH2         44.2706     3.9442    67.6968 CH2           1 RES     
    1254 CH2         44.5296     3.9089    69.2144 CH2           1 RES     
    1255 CH2         43.1899     3.7719    69.9615 CH2           1 RES     
    1256 CH2         43.4489     3.7366    71.4792 CH2           1 RES     
    1257 CH2         42.1092     3.5996    72.2262 CH2           1 RES     
    1258 CH2         42.3682     3.5643    73.7439 CH2           1 RES     
    1259 OA          41.1112     3.4358    74.4449 OA            1 RES     
    1260 H           40.9273     2.5000    74.5550 H             1 RES     
    1261 CH3         39.0000     2.7851    56.4422 CH3           1 RES     
    1262 CH2         39.2334     2.6970    57.8908 CH2           1 RES     
    1263 CH2         37.8971     2.8633    58.6379 CH2           1 RES     
    1264 CH2         38.1416     2.7709    60.1556 CH2           1 RES     
    1265 CH2         36.8053     2.9372    60.9026 CH2           1 RES     
    1266 CH2         37.0498     2.8449    62.4203 CH2           1 RES     
    1267 CH2         35.7134     3.0112    63.1674 CH2           1 RES     
    1268 CH2         35.9580     2.9189    64.6850 CH2           1 RES     
    1269 CH2         34.6216     3.0852    65.4321 CH2           1 RES     
    1270 CH2         34.8661     2.9929    66.9497 CH2           1 RES     
    1271 CH2         33.5298     3.1592    67.6968 CH2           1 RES     
    1272 CH2         33.7743     3.0669    69.2144 CH2           1 RES     
    1273 CH2         32.4380     3.2332    69.9615 CH2           1 RES     
    1274 CH2         32.6825     3.1408    71.4792 CH2           1 RES     
    1275 CH2         31.3461     3.3071    72.2262 CH2           1 RES     
    1276 CH2         31.5907     3.2148    73.7439 CH2           1 RES     
    1277 OA          30.3368     3.3709    74.4449 OA            1 RES     
    1278 H           29.9481     2.5000    74.5550 H             1 RES     
    1279 CH3         17.0436    24.6667    56.4422 CH3           1 RES     
    1280 CH2         17.2763    24.5766    57.8908 CH2           1 RES     
    1281 CH2         15.9414    24.7542    58.6379 CH2           1 RES     
    1282 CH2         16.1851    24.6598    60.1556 CH2           1 RES     
    1283 CH2         14.8503    24.8375    60.9026 CH2           1 RES     
    1284 CH2         15.0940    24.7431    62.4203 CH2           1 RES     
    1285 CH2         13.7591    24.9207    63.1674 CH2           1 RES     
    1286 CH2         14.0028    24.8263    64.6850 CH2           1 RES     
    1287 CH2         12.6679    25.0040    65.4321 CH2           1 RES     
    1288 CH2         12.9117    24.9096    66.9497 CH2           1 RES     
    1289 CH2         11.5768    25.0872    67.6968 CH2           1 RES     
    1290 CH2         11.8205    24.9928    69.2144 CH2           1 RES     
    1291 CH2         10.4856    25.1705    69.9615 CH2           1 RES     
    1292 CH2         10.7294    25.0761    71.4792 CH2           1 RES     
    1293 CH2          9.3945    25.2537    72.2262 CH2           1 RES     
    1294 CH2          9.6382    25.1593    73.7439 CH2           1 RES     
    1295 OA           8.3857    25.3260    74.4449 OA            1 RES     
    1296 H            7.9896    24.4585    74.5550 H             1 RES     
    1297 CH3         16.7695     5.7685    56.4422 CH3           1 RES     
    1298 CH2         16.9695     5.6195    57.8908 CH2           1 RES     
    1299 CH2         15.7308     6.1477    58.6379 CH2           1 RES     
    1300 CH2         15.9404     5.9915    60.1556 CH2           1 RES     
    1301 CH2         14.7017     6.5198    60.9026 CH2           1 RES     
    1302 CH2         14.9113     6.3636    62.4203 CH2           1 RES     
    1303 CH2         13.6725     6.8918    63.1674 CH2           1 RES     
    1304 CH2         13.8821     6.7357    64.6850 CH2           1 RES     
    1305 CH2         12.6434     7.2639    65.4321 CH2           1 RES     
    1306 CH2         12.8530     7.1078    66.9497 CH2           1 RES     
    1307 CH2         11.6143     7.6360    67.6968 CH2           1 RES     
    1308 CH2         11.8239     7.4798    69.2144 CH2           1 RES     
    1309 CH2         10.5851     8.0081    69.9615 CH2           1 RES     
    1310 CH2         10.7947     7.8519    71.4792 CH2           1 RES     
    1311 CH2          9.5560     8.3801    72.2262 CH2           1 RES     
    1312 CH2          9.7656     8.2240    73.7439 CH2           1 RES     
    1313 OA           8.6033     8.7196    74.4449 OA            1 RES     
    1314 H            7.9896     7.9896    74.5550 H             1 RES     
    1315 CH3         16.9868    20.0032    56.4422 CH3           1 RES     
    1316 CH2         17.2267    19.9347    57.8908 CH2           1 RES     
    1317 CH2         15.8812    19.9897    58.6379 CH2           1 RES     
    1318 CH2         16.1325    19.9179    60.1556 CH2           1 RES     
    1319 CH2         14.7870    19.9729    60.9026 CH2           1 RES     
    1320 CH2         15.0383    19.9012    62.4203 CH2           1 RES     
    1321 CH2         13.6928    19.9561    63.1674 CH2           1 RES     
    1322 CH2         13.9441    19.8844    64.6850 CH2           1 RES     
    1323 CH2         12.5986    19.9394    65.4321 CH2           1 RES     
    1324 CH2         12.8499    19.8676    66.9497 CH2           1 RES     
    1325 CH2         11.5044    19.9226    67.6968 CH2           1 RES     
    1326 CH2         11.7557    19.8509    69.2144 CH2           1 RES     
    1327 CH2         10.4102    19.9059    69.9615 CH2           1 RES     
    1328 CH2         10.6615    19.8341    71.4792 CH2           1 RES     
    1329 CH2          9.3160    19.8891    72.2262 CH2           1 RES     
    1330 CH2          9.5673    19.8173    73.7439 CH2           1 RES     
    1331 OA           8.3048    19.8689    74.4449 OA            1 RES     
    1332 H            7.9896    18.9689    74.5550 H             1 RES     
    1333 CH3         11.5299     1.8073    56.4422 CH3           1 RES     
    1334 CH2         11.7524     1.6945    57.8908 CH2           1 RES     
    1335 CH2         10.4418     2.0039    58.6379 CH2           1 RES     
    1336 CH2         10.6750     1.8858    60.1556 CH2           1 RES     
    1337 CH2          9.3643     2.1952    60.9026 CH2           1 RES     
    1338 CH2          9.5975     2.0771    62.4203 CH2           1 RES     
    1339 CH2          8.2869     2.3865    63.1674 CH2           1 RES     
    1340 CH2          8.5200     2.2684    64.6850 CH2           1 RES     
    1341 CH2          7.2094     2.5778    65.4321 CH2           1 RES     
    1342 CH2          7.4425     2.4597    66.9497 CH2           1 RES     
    1343 CH2          6.1319     2.7691    67.6968 CH2           1 RES     
    1344 CH2          6.3650     2.6509    69.2144 CH2           1 RES     
    1345 CH2          5.0544     2.9604    69.9615 CH2           1 RES     
    1346 CH2          5.2876     2.8422    71.4792 CH2           1 RES     
    1347 CH2          3.9769     3.1517    72.2262 CH2           1 RES     
    1348 CH2          4.2101     3.0335    73.7439 CH2           1 RES     
    1349 OA           2.9803     3.3239    74.4449 OA            1 RES     
    1350 H            2.5000     2.5000    74.5550 H             1 RES     
    1351 CH3         37.9751    23.1624    56.4422 CH3           1 RES     
    1352 CH2         38.2236    23.1846    57.8908 CH2           1 RES     
    1353 CH2         36.9479    22.7531    58.6379 CH2           1 RES     
    1354 CH2         37.2083    22.7763    60.1556 CH2           1 RES     
    1355 CH2         35.9326    22.3449    60.9026 CH2           1 RES     
    1356 CH2         36.1930    22.3681    62.4203 CH2           1 RES     
    1357 CH2         34.9173    21.9366    63.1674 CH2           1 RES     
    1358 CH2         35.1776    21.9599    64.6850 CH2           1 RES     
    1359 CH2         33.9020    21.5284    65.4321 CH2           1 RES     
    1360 CH2         34.1623    21.5516    66.9497 CH2           1 RES     
    1361 CH2         32.8866    21.1202    67.6968 CH2           1 RES     
    1362 CH2         33.1470    21.1434    69.2144 CH2           1 RES     
    1363 CH2         31.8713    20.7119    69.9615 CH2           1 RES     
    1364 CH2         32.1316    20.7351    71.4792 CH2           1 RES     
    1365 CH2         30.8560    20.3037    72.2262 CH2           1 RES     
    1366 CH2         31.1163    20.3269    73.7439 CH2           1 RES     
    1367 OA          29.9193    19.9221    74.4449 OA            1 RES     
    1368 H           29.9481    18.9689    74.5550 H             1 RES     
    1369 CH3         27.6797    21.9805    56.4422 CH3           1 RES     
    1370 CH2         27.8753    21.8256    57.8908 CH2           1 RES     
    1371 CH2         26.6526    22.3900    58.6379 CH2           1 RES     
    1372 CH2         26.8575    22.2278    60.1556 CH2           1 RES     
    1373 CH2         25.6348    22.7921    60.9026 CH2           1 RES     
    1374 CH2         25.8398    22.6299    62.4203 CH2           1 RES     
    1375 CH2         24.6171    23.1943    63.1674 CH2           1 RES     
    1376 CH2         24.8220    23.0320    64.6850 CH2           1 RES     
    1377 CH2         23.5993    23.5964    65.4321 CH2           1 RES     
    1378 CH2         23.8042    23.4342    66.9497 CH2           1 RES     
    1379 CH2         22.5816    23.9985    67.6968 CH2           1 RES     
    1380 CH2         22.7865    23.8363    69.2144 CH2           1 RES     
    1381 CH2         21.5638    24.4007    69.9615 CH2           1 RES     
    1382 CH2         21.7687    24.2384    71.4792 CH2           1 RES     
    1383 CH2         20.5460    24.8028    72.2262 CH2           1 RES     
    1384 CH2         20.7510    24.6406    73.7439 CH2           1 RES     
    1385 OA          19.6037    25.1701    74.4449 OA            1 RES     
    1386 H           18.9689    24.4585    74.5550 H             1 RES     
    1387 CH3         38.8865    12.0218    56.4422 CH3           1 RES     
    1388 CH2         39.0986    11.8905    57.8908 CH2           1 RES     
    1389 CH2         37.8190    12.3102    58.6379 CH2           1 RES     
    1390 CH2         38.0413    12.1727    60.1556 CH2           1 RES     
    1391 CH2         36.7617    12.5924    60.9026 CH2           1 RES     
    1392 CH2         36.9840    12.4548    62.4203 CH2           1 RES     
    1393 CH2         35.7044    12.8745    63.1674 CH2           1 RES     
    1394 CH2         35.9266    12.7370    64.6850 CH2           1 RES     
    1395 CH2         34.6471    13.1566    65.4321 CH2           1 RES     
    1396 CH2         34.8693    13.0191    66.9497 CH2           1 RES     
    1397 CH2         33.5897    13.4388    67.6968 CH2           1 RES     
    1398 CH2         33.8120    13.3012    69.2144 CH2           1 RES     
    1399 CH2         32.5324    13.7209    69.9615 CH2           1 RES     
    1400 CH2         32.7547    13.5834    71.4792 CH2           1 RES     
    1401 CH2         31.4751    14.0031    72.2262 CH2           1 RES     
    1402 CH2         31.6973    13.8655    73.7439 CH2           1 RES     
    1403 OA          30.4967    14.2593    74.4449 OA            1 RES     
    1404 H           29.9481    13.4792    74.5550 H             1 RES     
    1405 CH3         44.4577     3.3115    56.4422 CH3           1 RES     
    1406 CH2         44.6958     3.2371    57.8908 CH2           1 RES     
    1407 CH2         43.3521     3.3253    58.6379 CH2           1 RES     
    1408 CH2         43.6016     3.2474    60.1556 CH2           1 RES     
    1409 CH2         42.2578     3.3356    60.9026 CH2           1 RES     
    1410 CH2         42.5073     3.2577    62.4203 CH2           1 RES     
    1411 CH2         41.1635     3.3459    63.1674 CH2           1 RES     
    1412 CH2         41.4130     3.2680    64.6850 CH2           1 RES     
    1413 CH2         40.0692     3.3562    65.4321 CH2           1 RES     
    1414 CH2         40.3187     3.2783    66.9497 CH2           1 RES     
    1415 CH2         38.9750     3.3665    67.6968 CH2           1 RES     
    1416 CH2         39.2245     3.2886    69.2144 CH2           1 RES     
    1417 CH2         37.8807     3.3769    69.9615 CH2           1 RES     
    1418 CH2         38.1302     3.2989    71.4792 CH2           1 RES     
    1419 CH2         36.7864     3.3872    72.2262 CH2           1 RES     
    1420 CH2         37.0359     3.3092    73.7439 CH2           1 RES     
    1421 OA          35.7750     3.3920    74.4449 OA            1 RES     
    1422 H           35.4377     2.5000    74.5550 H             1 RES     
    1423 CH3         11.4847    28.8109    56.4422 CH3           1 RES     
    1424 CH2         11.7015    28.6873    57.8908 CH2           1 RES     
    1425 CH2         10.4077    29.0610    58.6379 CH2           1 RES     
    1426 CH2         10.6347    28.9315    60.1556 CH2           1 RES     
    1427 CH2          9.3410    29.3052    60.9026 CH2           1 RES     
    1428 CH2          9.5680    29.1757    62.4203 CH2           1 RES     
    1429 CH2          8.2742    29.5494    63.1674 CH2           1 RES     
    1430 CH2          8.5013    29.4199    64.6850 CH2           1 RES     
    1431 CH2          7.2075    29.7936    65.4321 CH2           1 RES     
    1432 CH2          7.4345    29.6640    66.9497 CH2           1 RES     
    1433 CH2          6.1408    30.0377    67.6968 CH2           1 RES     
    1434 CH2          6.3678    29.9082    69.2144 CH2           1 RES     
    1435 CH2          5.0740    30.2819    69.9615 CH2           1 RES     
    1436 CH2          5.3011    30.1524    71.4792 CH2           1 RES     
    1437 CH2          4.0073    30.5261    72.2262 CH2           1 RES     
    1438 CH2          4.2343    30.3966    73.7439 CH2           1 RES     
    1439 OA           3.0204    30.7473    74.4449 OA            1 RES     
    1440 H            2.5000    29.9481    74.5550 H             1 RES     
    1441 CH3         11.5526    13.7418    56.4422 CH3           1 RES     
    1442 CH2         11.7858    13.6531    57.8908 CH2           1 RES     
    1443 CH2         10.4499    13.8227    58.6379 CH2           1 RES     
    1444 CH2         10.6942    13.7298    60.1556 CH2           1 RES     
    1445 CH2          9.3582    13.8994    60.9026 CH2           1 RES     
    1446 CH2          9.6025    13.8065    62.4203 CH2           1 RES     
    1447 CH2          8.2666    13.9761    63.1674 CH2           1 RES     
    1448 CH2          8.5109    13.8832    64.6850 CH2           1 RES     
    1449 CH2          7.1750    14.0528    65.4321 CH2           1 RES     
    1450 CH2          7.4193    13.9599    66.9497 CH2           1 RES     
    1451 CH2          6.0833    14.1295    67.6968 CH2           1 RES     
    1452 CH2          6.3276    14.0366    69.2144 CH2           1 RES     
    1453 CH2          4.9917    14.2062    69.9615 CH2           1 RES     
    1454 CH2          5.2360    14.1133    71.4792 CH2           1 RES     
    1455 CH2          3.9001    14.2829    72.2262 CH2           1 RES     
    1456 CH2          4.1444    14.1900    73.7439 CH2           1 RES     
    1457 OA           2.8908    14.3491    74.4449 OA            1 RES     
    1458 H            2.5000    13.4792    74.5550 H             1 RES     
    1459 CH3         16.0575     6.6144    56.4422 CH3           1 RES     
    1460 CH2         16.3062     6.6341    57.8908 CH2           1 RES     
    1461 CH2         15.0263     6.2152    58.6379 CH2           1 RES     
    1462 CH2         15.2869     6.2359    60.1556 CH2           1 RES     
    1463 CH2         14.0071     5.8170    60.9026 CH2           1 RES     
    1464 CH2         14.2676     5.8377    62.4203 CH2           1 RES     
    1465 CH2         12.9878     5.4188    63.1674 CH2           1 RES     
    1466 CH2         13.2483     5.4394    64.6850 CH2           1 RES     
    1467 CH2         11.9685     5.0205    65.4321 CH2           1 RES     
    1468 CH2         12.2290     5.0412    66.9497 CH2           1 RES     
    1469 CH2         10.9492     4.6223    67.6968 CH2           1 RES     
    1470 CH2         11.2097     4.6430    69.2144 CH2           1 RES     
    1471 CH2          9.9299     4.2241    69.9615 CH2           1 RES     
    1472 CH2         10.1904     4.2447    71.4792 CH2           1 RES     
    1473 CH2          8.9106     3.8259    72.2262 CH2           1 RES     
    1474 CH2          9.1711     3.8465    73.7439 CH2           1 RES     
    1475 OA           7.9702     3.4535    74.4449 OA            1 RES     
    1476 H            7.9896     2.5000    74.5550 H             1 RES     
    1477 CH3         38.9654     8.8299    56.4422 CH3           1 RES     
    1478 CH2         39.2038     8.7562    57.8908 CH2           1 RES     
    1479 CH2         37.8598     8.8402    58.6379 CH2           1 RES     
    1480 CH2         38.1095     8.7631    60.1556 CH2           1 RES     
    1481 CH2         36.7655     8.8470    60.9026 CH2           1 RES     
    1482 CH2         37.0152     8.7699    62.4203 CH2           1 RES     
    1483 CH2         35.6712     8.8538    63.1674 CH2           1 RES     
    1484 CH2         35.9209     8.7767    64.6850 CH2           1 RES     
    1485 CH2         34.5769     8.8606    65.4321 CH2           1 RES     
    1486 CH2         34.8266     8.7835    66.9497 CH2           1 RES     
    1487 CH2         33.4826     8.8674    67.6968 CH2           1 RES     
    1488 CH2         33.7323     8.7903    69.2144 CH2           1 RES     
    1489 CH2         32.3883     8.8743    69.9615 CH2           1 RES     
    1490 CH2         32.6380     8.7971    71.4792 CH2           1 RES     
    1491 CH2         31.2940     8.8811    72.2262 CH2           1 RES     
    1492 CH2         31.5437     8.8039    73.7439 CH2           1 RES     
    1493 OA          30.2826     8.8827    74.4449 OA            1 RES     
    1494 H           29.9481     7.9896    74.5550 H             1 RES     
    1495 CH3         33.5117    40.6862    56.4422 CH3           1 RES     
    1496 CH2         33.7396    40.5846    57.8908 CH2           1 RES     
    1497 CH2         32.4151    40.8283    58.6379 CH2           1 RES     
    1498 CH2         32.6539    40.7219    60.1556 CH2           1 RES     
    1499 CH2         31.3295    40.9655    60.9026 CH2           1 RES     
    1500 CH2         31.5682    40.8592    62.4203 CH2           1 RES     
    1501 CH2         30.2438    41.1028    63.1674 CH2           1 RES     
    1502 CH2         30.4825    40.9964    64.6850 CH2           1 RES     
    1503 CH2         29.1581    41.2401    65.4321 CH2           1 RES     
    1504 CH2         29.3969    41.1337    66.9497 CH2           1 RES     
    1505 CH2         28.0724    41.3774    67.6968 CH2           1 RES     
    1506 CH2         28.3112    41.2710    69.2144 CH2           1 RES     
    1507 CH2         26.9867    41.5146    69.9615 CH2           1 RES     
    1508 CH2         27.2255    41.4083    71.4792 CH2           1 RES     
    1509 CH2         25.9011    41.6519    72.2262 CH2           1 RES     
    1510 CH2         26.1398    41.5455    73.7439 CH2           1 RES     
    1511 OA          24.8971    41.7741    74.4449 OA            1 RES     
    1512 H           24.4585    40.9273    74.5550 H             1 RES     
    1513 CH3         43.5487    27.3522    56.6653 CH3           1 RES     
    1514 CH2         43.3346    26.3796    57.7466 CH2           1 RES     
    1515 CH2         42.5268    27.0398    58.8793 CH2           1 RES     
    1516 CH2         42.3025    26.0209    60.0121 CH2           1 RES     
    1517 CH2         41.4946    26.6810    61.1448 CH2           1 RES     
    1518 CH2         41.2704    25.6621    62.2776 CH2           1 RES     
    1519 CH2         40.4625    26.3223    63.4103 CH2           1 RES     
    1520 CH2         40.2383    25.3034    64.5431 CH2           1 RES     
    1521 CH2         39.4304    25.9635    65.6758 CH2           1 RES     
    1522 CH2         39.2061    24.9446    66.8086 CH2           1 RES     
    1523 CH2         38.3983    25.6048    67.9413 CH2           1 RES     
    1524 CH2         38.1740    24.5859    69.0741 CH2           1 RES     
    1525 CH2         37.3661    25.2460    70.2069 CH2           1 RES     
    1526 CH2         37.1419    24.2271    71.3396 CH2           1 RES     
    1527 CH2         36.3340    24.8872    72.4724 CH2           1 RES     
    1528 O           36.5405    22.7907    73.5364 O             1 RES     
    1529 C           36.1288    23.9497    73.5324 C             1 RES     
    1530 OA          35.4377    24.4585    74.5550 OA            1 RES     
    1531 H           35.3492    23.7745    75.2228 H             1 RES     
    1532 CH3         27.4433    17.4373    56.6653 CH3           1 RES     
    1533 CH2         26.7732    16.7007    57.7466 CH2           1 RES     
    1534 CH2         26.4016    17.6755    58.8793 CH2           1 RES     
    1535 CH2         25.6995    16.9038    60.0121 CH2           1 RES     
    1536 CH2         25.3279    17.8786    61.1448 CH2           1 RES     
    1537 CH2         24.6259    17.1069    62.2776 CH2           1 RES     
    1538 CH2         24.2543    18.0817    63.4103 CH2           1 RES     
    1539 CH2         23.5522    17.3100    64.5431 CH2           1 RES     
    1540 CH2         23.1806    18.2848    65.6758 CH2           1 RES     
    1541 CH2         22.4786    17.5131    66.8086 CH2           1 RES     
    1542 CH2         22.1069    18.4879    67.9413 CH2           1 RES     
    1543 CH2         21.4049    17.7162    69.0741 CH2           1 RES     
    1544 CH2         21.0333    18.6910    70.2069 CH2           1 RES     
    1545 CH2         20.3313    17.9193    71.3396 CH2           1 RES     
    1546 CH2         19.9596    18.8941    72.4724 CH2           1 RES     
    1547 O           19.0943    16.9733    73.5364 O             1 RES     
    1548 C           19.3146    18.1834    73.5324 C             1 RES     
    1549 OA          18.9689    18.9689    74.5550 OA            1 RES     
    1550 H           18.5514    18.4199    75.2228 H             1 RES     
    1551 CH3         10.8959    17.0530    56.6653 CH3           1 RES     
    1552 CH2         10.1929    16.3476    57.7466 CH2           1 RES     
    1553 CH2          9.8661    17.3384    58.8793 CH2           1 RES     
    1554 CH2          9.1297    16.5994    60.0121 CH2           1 RES     
    1555 CH2          8.8028    17.5902    61.1448 CH2           1 RES     
    1556 CH2          8.0664    16.8512    62.2776 CH2           1 RES     
    1557 CH2          7.7395    17.8419    63.4103 CH2           1 RES     
    1558 CH2          7.0031    17.1029    64.5431 CH2           1 RES     
    1559 CH2          6.6762    18.0937    65.6758 CH2           1 RES     
    1560 CH2          5.9398    17.3547    66.8086 CH2           1 RES     
    1561 CH2          5.6129    18.3455    67.9413 CH2           1 RES     
    1562 CH2          4.8765    17.6065    69.0741 CH2           1 RES     
    1563 CH2          4.5496    18.5973    70.2069 CH2           1 RES     
    1564 CH2          3.8132    17.8583    71.3396 CH2           1 RES     
    1565 CH2          3.4863    18.8491    72.4724 CH2           1 RES     
    1566 O            2.5344    16.9697    73.5364 O             1 RES     
    1567 C            2.8096    18.1685    73.5324 C             1 RES     
    1568 OA           2.5000    18.9689    74.5550 OA            1 RES     
    1569 H            2.0579    18.4394    75.2228 H             1 RES     
    1570 CH3         44.0446    30.2374    56.6653 CH3           1 RES     
    1571 CH2         43.5448    29.3760    57.7466 CH2           1 RES     
    1572 CH2         42.9760    30.2507    58.8793 CH2           1 RES     
    1573 CH2         42.4525    29.3482    60.0121 CH2           1 RES     
    1574 CH2         41.8837    30.2229    61.1448 CH2           1 RES     
    1575 CH2         41.3601    29.3204    62.2776 CH2           1 RES     
    1576 CH2         40.7913    30.1951    63.4103 CH2           1 RES     
    1577 CH2         40.2678    29.2927    64.5431 CH2           1 RES     
    1578 CH2         39.6990    30.1673    65.6758 CH2           1 RES     
    1579 CH2         39.1754    29.2649    66.8086 CH2           1 RES     
    1580 CH2         38.6067    30.1395    67.9413 CH2           1 RES     
    1581 CH2         38.0831    29.2371    69.0741 CH2           1 RES     
    1582 CH2         37.5143    30.1117    70.2069 CH2           1 RES     
    1583 CH2         36.9908    29.2093    71.3396 CH2           1 RES     
    1584 CH2         36.4220    30.0839    72.4724 CH2           1 RES     
    1585 O           35.9809    28.0239    73.5364 O             1 RES     
    1586 C           35.9413    29.2532    73.5324 C             1 RES     
    1587 OA          35.4377    29.9481    74.5550 OA            1 RES     
    1588 H           35.1453    29.3234    75.2228 H             1 RES     
    1589 CH3         21.5579    21.9518    56.6653 CH3           1 RES     
    1590 CH2         21.3545    20.9769    57.7466 CH2           1 RES     
    1591 CH2         20.5394    21.6281    58.8793 CH2           1 RES     
    1592 CH2         20.3264    20.6068    60.0121 CH2           1 RES     
    1593 CH2         19.5113    21.2580    61.1448 CH2           1 RES     
    1594 CH2         19.2983    20.2367    62.2776 CH2           1 RES     
    1595 CH2         18.4832    20.8879    63.4103 CH2           1 RES     
    1596 CH2         18.2702    19.8666    64.5431 CH2           1 RES     
    1597 CH2         17.4551    20.5178    65.6758 CH2           1 RES     
    1598 CH2         17.2421    19.4965    66.8086 CH2           1 RES     
    1599 CH2         16.4270    20.1477    67.9413 CH2           1 RES     
    1600 CH2         16.2140    19.1264    69.0741 CH2           1 RES     
    1601 CH2         15.3989    19.7776    70.2069 CH2           1 RES     
    1602 CH2         15.1859    18.7563    71.3396 CH2           1 RES     
    1603 CH2         14.3708    19.4075    72.4724 CH2           1 RES     
    1604 O           14.6004    17.3133    73.5364 O             1 RES     
    1605 C           14.1759    18.4677    73.5324 C             1 RES     
    1606 OA          13.4792    18.9689    74.5550 OA            1 RES     
    1607 H           13.3983    18.2839    75.2228 H             1 RES     
    1608 CH3         32.8977     4.2149    56.6653 CH3           1 RES     
    1609 CH2         32.5480     3.2824    57.7466 CH2           1 RES     
    1610 CH2         31.8418     4.0504    58.8793 CH2           1 RES     
    1611 CH2         31.4754     3.0736    60.0121 CH2           1 RES     
    1612 CH2         30.7693     3.8416    61.1448 CH2           1 RES     
    1613 CH2         30.4029     2.8648    62.2776 CH2           1 RES     
    1614 CH2         29.6967     3.6328    63.4103 CH2           1 RES     
    1615 CH2         29.3303     2.6559    64.5431 CH2           1 RES     
    1616 CH2         28.6242     3.4239    65.6758 CH2           1 RES     
    1617 CH2         28.2578     2.4471    66.8086 CH2           1 RES     
    1618 CH2         27.5516     3.2151    67.9413 CH2           1 RES     
    1619 CH2         27.1852     2.2382    69.0741 CH2           1 RES     
    1620 CH2         26.4791     3.0062    70.2069 CH2           1 RES     
    1621 CH2         26.1127     2.0294    71.3396 CH2           1 RES     
    1622 CH2         25.4065     2.7974    72.4724 CH2           1 RES     
    1623 O           25.3138     0.6927    73.5364 O             1 RES     
    1624 C           25.0705     1.8984    73.5324 C             1 RES     
    1625 OA          24.4585     2.5000    74.5550 OA            1 RES     
    1626 H           24.2739     1.8354    75.2228 H             1 RES     
    1627 CH3         27.4940     1.2818    56.6653 CH3           1 RES     
    1628 CH2         26.8515     0.5209    57.7466 CH2           1 RES     
    1629 CH2         26.4442     1.4814    58.8793 CH2           1 RES     
    1630 CH2         25.7710     0.6843    60.0121 CH2           1 RES     
    1631 CH2         25.3638     1.6448    61.1448 CH2           1 RES     
    1632 CH2         24.6906     0.8477    62.2776 CH2           1 RES     
    1633 CH2         24.2833     1.8082    63.4103 CH2           1 RES     
    1634 CH2         23.6102     1.0111    64.5431 CH2           1 RES     
    1635 CH2         23.2029     1.9716    65.6758 CH2           1 RES     
    1636 CH2         22.5298     1.1745    66.8086 CH2           1 RES     
    1637 CH2         22.1225     2.1350    67.9413 CH2           1 RES     
    1638 CH2         21.4494     1.3379    69.0741 CH2           1 RES     
    1639 CH2         21.0421     2.2984    70.2069 CH2           1 RES     
    1640 CH2         20.3690     1.5013    71.3396 CH2           1 RES     
    1641 CH2         19.9617     2.4618    72.4724 CH2           1 RES     
    1642 O           19.1677     0.5105    73.5364 O             1 RES     
    1643 C           19.3433     1.7278    73.5324 C             1 RES     
    1644 OA          18.9689     2.5000    74.5550 OA            1 RES     
    1645 H           18.5719     1.9360    75.2228 H             1 RES     
    1646 CH3         32.4320    38.6912    56.6653 CH3           1 RES     
    1647 CH2         32.2616    37.7100    57.7466 CH2           1 RES     
    1648 CH2         31.4250    38.3334    58.8793 CH2           1 RES     
    1649 CH2         31.2466    37.3055    60.0121 CH2           1 RES     
    1650 CH2         30.4100    37.9289    61.1448 CH2           1 RES     
    1651 CH2         30.2315    36.9009    62.2776 CH2           1 RES     
    1652 CH2         29.3949    37.5243    63.4103 CH2           1 RES     
    1653 CH2         29.2165    36.4964    64.5431 CH2           1 RES     
    1654 CH2         28.3799    37.1198    65.6758 CH2           1 RES     
    1655 CH2         28.2014    36.0919    66.8086 CH2           1 RES     
    1656 CH2         27.3648    36.7152    67.9413 CH2           1 RES     
    1657 CH2         27.1863    35.6873    69.0741 CH2           1 RES     
    1658 CH2         26.3498    36.3107    70.2069 CH2           1 RES     
    1659 CH2         26.1713    35.2828    71.3396 CH2           1 RES     
    1660 CH2         25.3347    35.9061    72.4724 CH2           1 RES     
    1661 O           25.6348    33.8209    73.5364 O             1 RES     
    1662 C           25.1716    34.9603    73.5324 C             1 RES     
    1663 OA          24.4585    35.4377    74.5550 OA            1 RES     
    1664 H           24.4006    34.7504    75.2228 H             1 RES     
    1665 CH3         43.7230    15.8277    56.6653 CH3           1 RES     
    1666 CH2         43.4448    14.8715    57.7466 CH2           1 RES     
    1667 CH2         42.6826    15.5839    58.8793 CH2           1 RES     
    1668 CH2         42.3911    14.5821    60.0121 CH2           1 RES     
    1669 CH2         41.6289    15.2945    61.1448 CH2           1 RES     
    1670 CH2         41.3375    14.2927    62.2776 CH2           1 RES     
    1671 CH2         40.5752    15.0051    63.4103 CH2           1 RES     
    1672 CH2         40.2838    14.0033    64.5431 CH2           1 RES     
    1673 CH2         39.5216    14.7157    65.6758 CH2           1 RES     
    1674 CH2         39.2301    13.7139    66.8086 CH2           1 RES     
    1675 CH2         38.4679    14.4263    67.9413 CH2           1 RES     
    1676 CH2         38.1764    13.4245    69.0741 CH2           1 RES     
    1677 CH2         37.4142    14.1369    70.2069 CH2           1 RES     
    1678 CH2         37.1228    13.1351    71.3396 CH2           1 RES     
    1679 CH2         36.3605    13.8475    72.4724 CH2           1 RES     
    1680 O           36.4273    11.7418    73.5364 O             1 RES     
    1681 C           36.0935    12.9257    73.5324 C             1 RES     
    1682 OA          35.4377    13.4792    74.5550 OA            1 RES     
    1683 H           35.3040    12.8026    75.2228 H             1 RES     
    1684 CH3         11.1104     7.8409    56.6653 CH3           1 RES     
    1685 CH2         10.5675     7.0060    57.7466 CH2           1 RES     
    1686 CH2         10.0440     7.9084    58.8793 CH2           1 RES     
    1687 CH2          9.4752     7.0338    60.0121 CH2           1 RES     
    1688 CH2          8.9516     7.9362    61.1448 CH2           1 RES     
    1689 CH2          8.3828     7.0616    62.2776 CH2           1 RES     
    1690 CH2          7.8593     7.9640    63.4103 CH2           1 RES     
    1691 CH2          7.2905     7.0894    64.5431 CH2           1 RES     
    1692 CH2          6.7669     7.9918    65.6758 CH2           1 RES     
    1693 CH2          6.1981     7.1172    66.8086 CH2           1 RES     
    1694 CH2          5.6746     8.0196    67.9413 CH2           1 RES     
    1695 CH2          5.1058     7.1450    69.0741 CH2           1 RES     
    1696 CH2          4.5822     8.0474    70.2069 CH2           1 RES     
    1697 CH2          4.0135     7.1728    71.3396 CH2           1 RES     
    1698 CH2          3.4899     8.0752    72.4724 CH2           1 RES     
    1699 O            2.9447     6.0402    73.5364 O             1 RES     
    1700 C            2.9676     7.2700    73.5324 C             1 RES     
    1701 OA           2.5000     7.9896    74.5550 OA            1 RES     
    1702 H            2.1762     7.3806    75.2228 H             1 RES     
    1703 CH3         32.7041    10.4739    56.6653 CH3           1 RES     
    1704 CH2         32.4416     9.5132    57.7466 CH2           1 RES     
    1705 CH2         31.6678    10.2130    58.8793 CH2           1 RES     
    1706 CH2         31.3929     9.2066    60.0121 CH2           1 RES     
    1707 CH2         30.6190     9.9063    61.1448 CH2           1 RES     
    1708 CH2         30.3441     8.8999    62.2776 CH2           1 RES     
    1709 CH2         29.5702     9.5997    63.4103 CH2           1 RES     
    1710 CH2         29.2953     8.5932    64.5431 CH2           1 RES     
    1711 CH2         28.5215     9.2930    65.6758 CH2           1 RES     
    1712 CH2         28.2465     8.2866    66.8086 CH2           1 RES     
    1713 CH2         27.4727     8.9863    67.9413 CH2           1 RES     
    1714 CH2         27.1977     7.9799    69.0741 CH2           1 RES     
    1715 CH2         26.4239     8.6797    70.2069 CH2           1 RES     
    1716 CH2         26.1489     7.6733    71.3396 CH2           1 RES     
    1717 CH2         25.3751     8.3730    72.4724 CH2           1 RES     
    1718 O           25.4765     6.2687    73.5364 O             1 RES     
    1719 C           25.1232     7.4469    73.5324 C             1 RES     
    1720 OA          24.4585     7.9896    74.5550 OA            1 RES     
    1721 H           24.3359     7.3109    75.2228 H             1 RES     
    1722 CH3         49.3887    15.0817    56.6653 CH3           1 RES     
    1723 CH2         49.0265    14.1540    57.7466 CH2           1 RES     
    1724 CH2         48.3307    14.9313    58.8793 CH2           1 RES     
    1725 CH2         47.9513    13.9594    60.0121 CH2           1 RES     
    1726 CH2         47.2554    14.7368    61.1448 CH2           1 RES     
    1727 CH2         46.8761    13.7649    62.2776 CH2           1 RES     
    1728 CH2         46.1802    14.5422    63.4103 CH2           1 RES     
    1729 CH2         45.8008    13.5703    64.5431 CH2           1 RES     
    1730 CH2         45.1049    14.3477    65.6758 CH2           1 RES     
    1731 CH2         44.7256    13.3758    66.8086 CH2           1 RES     
    1732 CH2         44.0297    14.1531    67.9413 CH2           1 RES     
    1733 CH2         43.6503    13.1812    69.0741 CH2           1 RES     
    1734 CH2         42.9545    13.9586    70.2069 CH2           1 RES     
    1735 CH2         42.5751    12.9867    71.3396 CH2           1 RES     
    1736 CH2         41.8792    13.7640    72.4724 CH2           1 RES     
    1737 O           41.7585    11.6607    73.5364 O             1 RES     
    1738 C           41.5313    12.8696    73.5324 C             1 RES     
    1739 OA          40.9273    13.4792    74.5550 OA            1 RES     
    1740 H           40.7339    12.8172    75.2228 H             1 RES     
    1741 CH3         48.9601    11.0939    56.6653 CH3           1 RES     
    1742 CH2         48.7715    10.1161    57.7466 CH2           1 RES     
    1743 CH2         47.9467    10.7549    58.8793 CH2           1 RES     
    1744 CH2         47.7491     9.7305    60.0121 CH2           1 RES     
    1745 CH2         46.9242    10.3694    61.1448 CH2           1 RES     
    1746 CH2         46.7266     9.3450    62.2776 CH2           1 RES     
    1747 CH2         45.9018     9.9838    63.4103 CH2           1 RES     
    1748 CH2         45.7042     8.9594    64.5431 CH2           1 RES     
    1749 CH2         44.8794     9.5983    65.6758 CH2           1 RES     
    1750 CH2         44.6818     8.5739    66.8086 CH2           1 RES     
    1751 CH2         43.8570     9.2127    67.9413 CH2           1 RES     
    1752 CH2         43.6594     8.1883    69.0741 CH2           1 RES     
    1753 CH2         42.8346     8.8272    70.2069 CH2           1 RES     
    1754 CH2         42.6370     7.8028    71.3396 CH2           1 RES     
    1755 CH2         41.8121     8.4416    72.4724 CH2           1 RES     
    1756 O           42.0733     6.3511    73.5364 O             1 RES     
    1757 C           41.6314     7.4990    73.5324 C             1 RES     
    1758 OA          40.9273     7.9896    74.5550 OA            1 RES     
    1759 H           40.8567     7.3035    75.2228 H             1 RES     
    1760 CH3         32.4347    33.1948    56.6653 CH3           1 RES     
    1761 CH2         32.2635    32.2138    57.7466 CH2           1 RES     
    1762 CH2         31.4275    32.8379    58.8793 CH2           1 RES     
    1763 CH2         31.2481    31.8101    60.0121 CH2           1 RES     
    1764 CH2         30.4121    32.4342    61.1448 CH2           1 RES     
    1765 CH2         30.2327    31.4064    62.2776 CH2           1 RES     
    1766 CH2         29.3967    32.0305    63.4103 CH2           1 RES     
    1767 CH2         29.2173    31.0027    64.5431 CH2           1 RES     
    1768 CH2         28.3813    31.6268    65.6758 CH2           1 RES     
    1769 CH2         28.2020    30.5991    66.8086 CH2           1 RES     
    1770 CH2         27.3659    31.2231    67.9413 CH2           1 RES     
    1771 CH2         27.1866    30.1954    69.0741 CH2           1 RES     
    1772 CH2         26.3505    30.8195    70.2069 CH2           1 RES     
    1773 CH2         26.1712    29.7917    71.3396 CH2           1 RES     
    1774 CH2         25.3351    30.4158    72.4724 CH2           1 RES     
    1775 O           25.6334    28.3303    73.5364 O             1 RES     
    1776 C           25.1712    29.4701    73.5324 C             1 RES     
    1777 OA          24.4585    29.9481    74.5550 OA            1 RES     
    1778 H           24.4001    29.2609    75.2228 H             1 RES     
    1779 CH3         10.5877    37.9691    56.6653 CH3           1 RES     
    1780 CH2          9.8015    37.3579    57.7466 CH2           1 RES     
    1781 CH2          9.6020    38.3819    58.8793 CH2           1 RES     
    1782 CH2          8.7784    37.7416    60.0121 CH2           1 RES     
    1783 CH2          8.5789    38.7657    61.1448 CH2           1 RES     
    1784 CH2          7.7553    38.1253    62.2776 CH2           1 RES     
    1785 CH2          7.5558    39.1494    63.4103 CH2           1 RES     
    1786 CH2          6.7322    38.5090    64.5431 CH2           1 RES     
    1787 CH2          6.5327    39.5331    65.6758 CH2           1 RES     
    1788 CH2          5.7090    38.8928    66.8086 CH2           1 RES     
    1789 CH2          5.5096    39.9168    67.9413 CH2           1 RES     
    1790 CH2          4.6859    39.2765    69.0741 CH2           1 RES     
    1791 CH2          4.4865    40.3005    70.2069 CH2           1 RES     
    1792 CH2          3.6628    39.6602    71.3396 CH2           1 RES     
    1793 CH2          3.4634    40.6843    72.4724 CH2           1 RES     
    1794 O            2.2823    38.9398    73.5364 O             1 RES     
    1795 C            2.7064    40.0943    73.5324 C             1 RES     
    1796 OA           2.5000    40.9273    74.5550 OA            1 RES     
    1797 H            1.9948    40.4578    75.2228 H             1 RES     
    1798 CH3         16.5962    13.7770    56.6653 CH3           1 RES     
    1799 CH2         16.0973    12.9151    57.7466 CH2           1 RES     
    1800 CH2         15.5276    13.7892    58.8793 CH2           1 RES     
    1801 CH2         15.0050    12.8863    60.0121 CH2           1 RES     
    1802 CH2         14.4353    13.7603    61.1448 CH2           1 RES     
    1803 CH2         13.9126    12.8574    62.2776 CH2           1 RES     
    1804 CH2         13.3430    13.7315    63.4103 CH2           1 RES     
    1805 CH2         12.8203    12.8285    64.5431 CH2           1 RES     
    1806 CH2         12.2507    13.7026    65.6758 CH2           1 RES     
    1807 CH2         11.7280    12.7997    66.8086 CH2           1 RES     
    1808 CH2         11.1584    13.6737    67.9413 CH2           1 RES     
    1809 CH2         10.6357    12.7708    69.0741 CH2           1 RES     
    1810 CH2         10.0661    13.6449    70.2069 CH2           1 RES     
    1811 CH2          9.5434    12.7419    71.3396 CH2           1 RES     
    1812 CH2          8.9737    13.6160    72.4724 CH2           1 RES     
    1813 O            8.5347    11.5555    73.5364 O             1 RES     
    1814 C            8.4939    12.7848    73.5324 C             1 RES     
    1815 OA           7.9896    13.4792    74.5550 OA            1 RES     
    1816 H            7.6979    12.8543    75.2228 H             1 RES     
    1817 CH3         49.3112    17.0008    56.6653 CH3           1 RES     
    1818 CH2         48.6038    16.2998    57.7466 CH2           1 RES     
    1819 CH2         48.2831    17.2925    58.8793 CH2           1 RES     
    1820 CH2         47.5421    16.5581    60.0121 CH2           1 RES     
    1821 CH2         47.2214    17.5509    61.1448 CH2           1 RES     
    1822 CH2         46.4804    16.8165    62.2776 CH2           1 RES     
    1823 CH2         46.1597    17.8093    63.4103 CH2           1 RES     
    1824 CH2         45.4187    17.0749    64.5431 CH2           1 RES     
    1825 CH2         45.0980    18.0677    65.6758 CH2           1 RES     
    1826 CH2         44.3570    17.3333    66.8086 CH2           1 RES     
    1827 CH2         44.0363    18.3261    67.9413 CH2           1 RES     
    1828 CH2         43.2953    17.5917    69.0741 CH2           1 RES     
    1829 CH2         42.9746    18.5845    70.2069 CH2           1 RES     
    1830 CH2         42.2336    17.8501    71.3396 CH2           1 RES     
    1831 CH2         41.9129    18.8429    72.4724 CH2           1 RES     
    1832 O           40.9493    16.9695    73.5364 O             1 RES     
    1833 C           41.2320    18.1666    73.5324 C             1 RES     
    1834 OA          40.9273    18.9689    74.5550 OA            1 RES     
    1835 H           40.4820    18.4422    75.2228 H             1 RES     
    1836 CH3         16.4750    39.4573    56.6653 CH3           1 RES     
    1837 CH2         15.8102    38.7158    57.7466 CH2           1 RES     
    1838 CH2         15.4315    39.6879    58.8793 CH2           1 RES     
    1839 CH2         14.7351    38.9111    60.0121 CH2           1 RES     
    1840 CH2         14.3564    39.8832    61.1448 CH2           1 RES     
    1841 CH2         13.6600    39.1064    62.2776 CH2           1 RES     
    1842 CH2         13.2813    40.0785    63.4103 CH2           1 RES     
    1843 CH2         12.5849    39.3017    64.5431 CH2           1 RES     
    1844 CH2         12.2062    40.2738    65.6758 CH2           1 RES     
    1845 CH2         11.5098    39.4970    66.8086 CH2           1 RES     
    1846 CH2         11.1311    40.4692    67.9413 CH2           1 RES     
    1847 CH2         10.4347    39.6923    69.0741 CH2           1 RES     
    1848 CH2         10.0560    40.6645    70.2069 CH2           1 RES     
    1849 CH2          9.3596    39.8876    71.3396 CH2           1 RES     
    1850 CH2          8.9809    40.8598    72.4724 CH2           1 RES     
    1851 O            8.1295    38.9328    73.5364 O             1 RES     
    1852 C            8.3411    40.1444    73.5324 C             1 RES     
    1853 OA           7.9896    40.9273    74.5550 OA            1 RES     
    1854 H            7.5761    40.3753    75.2228 H             1 RES     
    1855 CH3         27.3631    37.3608    56.6653 CH3           1 RES     
    1856 CH2         27.0365    36.4200    57.7466 CH2           1 RES     
    1857 CH2         26.3116    37.1703    58.8793 CH2           1 RES     
    1858 CH2         25.9695    36.1847    60.0121 CH2           1 RES     
    1859 CH2         25.2446    36.9350    61.1448 CH2           1 RES     
    1860 CH2         24.9024    35.9494    62.2776 CH2           1 RES     
    1861 CH2         24.1775    36.6997    63.4103 CH2           1 RES     
    1862 CH2         23.8354    35.7141    64.5431 CH2           1 RES     
    1863 CH2         23.1104    36.4644    65.6758 CH2           1 RES     
    1864 CH2         22.7683    35.4788    66.8086 CH2           1 RES     
    1865 CH2         22.0434    36.2291    67.9413 CH2           1 RES     
    1866 CH2         21.7012    35.2435    69.0741 CH2           1 RES     
    1867 CH2         20.9763    35.9938    70.2069 CH2           1 RES     
    1868 CH2         20.6342    35.0082    71.3396 CH2           1 RES     
    1869 CH2         19.9092    35.7585    72.4724 CH2           1 RES     
    1870 O           19.8686    33.6521    73.5364 O             1 RES     
    1871 C           19.5955    34.8514    73.5324 C             1 RES     
    1872 OA          18.9689    35.4377    74.5550 OA            1 RES     
    1873 H           18.8008    34.7688    75.2228 H             1 RES     
    1874 CH3         27.3439    15.4845    56.6653 CH3           1 RES     
    1875 CH2         27.0265    14.5406    57.7466 CH2           1 RES     
    1876 CH2         26.2943    15.2837    58.8793 CH2           1 RES     
    1877 CH2         25.9618    14.2948    60.0121 CH2           1 RES     
    1878 CH2         25.2296    15.0380    61.1448 CH2           1 RES     
    1879 CH2         24.8971    14.0491    62.2776 CH2           1 RES     
    1880 CH2         24.1649    14.7922    63.4103 CH2           1 RES     
    1881 CH2         23.8324    13.8033    64.5431 CH2           1 RES     
    1882 CH2         23.1002    14.5465    65.6758 CH2           1 RES     
    1883 CH2         22.7677    13.5576    66.8086 CH2           1 RES     
    1884 CH2         22.0355    14.3007    67.9413 CH2           1 RES     
    1885 CH2         21.7030    13.3118    69.0741 CH2           1 RES     
    1886 CH2         20.9708    14.0550    70.2069 CH2           1 RES     
    1887 CH2         20.6383    13.0660    71.3396 CH2           1 RES     
    1888 CH2         19.9061    13.8092    72.4724 CH2           1 RES     
    1889 O           19.8861    11.7026    73.5364 O             1 RES     
    1890 C           19.6013    12.8991    73.5324 C             1 RES     
    1891 OA          18.9689    13.4792    74.5550 OA            1 RES     
    1892 H           18.8074    12.8087    75.2228 H             1 RES     
    1893 CH3         21.3531     4.5019    56.6653 CH3           1 RES     
    1894 CH2         20.5281     3.9441    57.7466 CH2           1 RES     
    1895 CH2         20.3970     4.9791    58.8793 CH2           1 RES     
    1896 CH2         19.5327     4.3948    60.0121 CH2           1 RES     
    1897 CH2         19.4015     5.4298    61.1448 CH2           1 RES     
    1898 CH2         18.5372     4.8455    62.2776 CH2           1 RES     
    1899 CH2         18.4061     5.8805    63.4103 CH2           1 RES     
    1900 CH2         17.5418     5.2962    64.5431 CH2           1 RES     
    1901 CH2         17.4107     6.3312    65.6758 CH2           1 RES     
    1902 CH2         16.5464     5.7468    66.8086 CH2           1 RES     
    1903 CH2         16.4153     6.7819    67.9413 CH2           1 RES     
    1904 CH2         15.5510     6.1975    69.0741 CH2           1 RES     
    1905 CH2         15.4198     7.2325    70.2069 CH2           1 RES     
    1906 CH2         14.5555     6.6482    71.3396 CH2           1 RES     
    1907 CH2         14.4244     7.6832    72.4724 CH2           1 RES     
    1908 O           13.1303     6.0209    73.5364 O             1 RES     
    1909 C           13.6299     7.1448    73.5324 C             1 RES     
    1910 OA          13.4792     7.9896    74.5550 OA            1 RES     
    1911 H           12.9440     7.5546    75.2228 H             1 RES     
    1912 CH3         21.4222    21.1311    56.6653 CH3           1 RES     
    1913 CH2         20.6086    20.5567    57.7466 CH2           1 RES     
    1914 CH2         20.4566    21.5888    58.8793 CH2           1 RES     
    1915 CH2         19.6043    20.9871    60.0121 CH2           1 RES     
    1916 CH2         19.4522    22.0192    61.1448 CH2           1 RES     
    1917 CH2         18.5999    21.4175    62.2776 CH2           1 RES     
    1918 CH2         18.4478    22.4497    63.4103 CH2           1 RES     
    1919 CH2         17.5956    21.8479    64.5431 CH2           1 RES     
    1920 CH2         17.4435    22.8801    65.6758 CH2           1 RES     
    1921 CH2         16.5912    22.2783    66.8086 CH2           1 RES     
    1922 CH2         16.4391    23.3105    67.9413 CH2           1 RES     
    1923 CH2         15.5869    22.7087    69.0741 CH2           1 RES     
    1924 CH2         15.4348    23.7409    70.2069 CH2           1 RES     
    1925 CH2         14.5825    23.1392    71.3396 CH2           1 RES     
    1926 CH2         14.4304    24.1713    72.4724 CH2           1 RES     
    1927 O           13.1703    22.4830    73.5364 O             1 RES     
    1928 C           13.6470    23.6169    73.5324 C             1 RES     
    1929 OA          13.4792    24.4585    74.5550 OA            1 RES     
    1930 H           12.9529    24.0127    75.2228 H             1 RES     
    1931 CH3         22.4712    18.9689    24.3082 CH3           1 RES     
    1932 CH3         21.5200    16.8332    24.5677 CH3           1 RES     
    1933 CH3         23.6564    17.0801    24.1702 CH3           1 RES     
    1934 NL          22.5926    17.6137    24.7484 NL            1 RES     
    1935 CH2         22.9618    17.6232    26.0908 CH2           1 RES     
    1936 CH2         21.7076    18.2466    26.7311 CH2           1 RES     
    1937 OA          21.8998    18.3491    28.2000 OA            1 RES     
    1938 P           21.3638    16.9959    28.8645 P             1 RES     
    1939 OM          19.8052    16.8957    28.5169 OM            1 RES     
    1940 OM          22.2543    15.8056    28.2725 OM            1 RES     
    1941 OA          21.5543    17.0681    30.4514 OA            1 RES     
    1942 CH2         21.0475    15.7991    31.0327 CH2           1 RES     
    1943 CH1         20.5572    15.9684    32.2880 CH1           1 RES     
    1944 OE          19.3121    16.0662    33.0632 OE            1 RES     
    1945 C           18.5607    15.1767    32.1175 C             1 RES     
    1946 O           19.0450    14.6646    31.1094 O             1 RES     
    1947 CH2         17.3447    14.9606    32.7877 CH2           1 RES     
    1948 CH2         17.1821    15.6529    34.1537 CH2           1 RES     
    1949 CH2         15.8886    15.1603    34.8288 CH2           1 RES     
    1950 CH2         15.7260    15.8526    36.1948 CH2           1 RES     
    1951 CH2         14.4325    15.3601    36.8700 CH2           1 RES     
    1952 CH2         14.2699    16.0524    38.2360 CH2           1 RES     
    1953 CH2         12.9764    15.5599    38.9112 CH2           1 RES     
    1954 CH2         12.8138    16.2521    40.2771 CH2           1 RES     
    1955 CH2         11.5202    15.7596    40.9523 CH2           1 RES     
    1956 CH2         11.3576    16.4519    42.3183 CH2           1 RES     
    1957 CH2         10.0641    15.9594    42.9935 CH2           1 RES     
    1958 CH2          9.9015    16.6517    44.3594 CH2           1 RES     
    1959 CH2          8.6080    16.1591    45.0346 CH2           1 RES     
    1960 CH2          8.4454    16.8514    46.4006 CH2           1 RES     
    1961 CH2          7.1519    16.3589    47.0758 CH2           1 RES     
    1962 CH2          6.9893    17.0512    48.4418 CH2           1 RES     
    1963 CH3          5.7545    16.5811    49.0862 CH3           1 RES     
    1964 CH2         21.1830    17.3680    32.1432 CH2           1 RES     
    1965 OE          21.0941    17.9556    33.4816 OE            1 RES     
    1966 C           21.7285    19.2805    33.1778 C             1 RES     
    1967 O           22.1475    19.6148    32.0707 O             1 RES     
    1968 CH2         21.5134    20.0105    34.3590 CH2           1 RES     
    1969 CH2         20.7699    19.2787    35.4918 CH2           1 RES     
    1970 CH2         20.4526    20.2725    36.6245 CH2           1 RES     
    1971 CH2         19.7091    19.5407    37.7573 CH2           1 RES     
    1972 CH2         19.3918    20.5345    38.8901 CH2           1 RES     
    1973 CH2         18.6483    19.8027    40.0228 CH2           1 RES     
    1974 CH2         18.3310    20.7965    41.1556 CH2           1 RES     
    1975 CH2         17.5874    20.0647    42.2883 CH2           1 RES     
    1976 CH2         17.2701    21.0585    43.4211 CH2           1 RES     
    1977 CH2         16.5266    20.3267    44.5538 CH2           1 RES     
    1978 CH2         16.2093    21.3205    45.6866 CH2           1 RES     
    1979 CH2         15.4658    20.5887    46.8193 CH2           1 RES     
    1980 CH2         15.1485    21.5825    47.9521 CH2           1 RES     
    1981 CH2         14.4050    20.8507    49.0848 CH2           1 RES     
    1982 CH2         14.0877    21.8445    50.2176 CH2           1 RES     
    1983 CH2         13.3442    21.1127    51.3504 CH2           1 RES     
    1984 CH3         13.0413    22.0614    52.4316 CH3           1 RES     
    1985 CH3         16.9816    35.4377    24.3082 CH3           1 RES     
    1986 CH3         17.0512    33.1009    24.5677 CH3           1 RES     
    1987 CH3         18.8689    34.2501    24.1702 CH3           1 RES     
    1988 NL          17.6789    34.2694    24.7484 NL            1 RES     
    1989 CH2         18.0074    34.4382    26.0908 CH2           1 RES     
    1990 CH2         16.6070    34.4556    26.7311 CH2           1 RES     
    1991 OA          16.7357    34.6314    28.2000 OA            1 RES     
    1992 P           16.8399    33.1796    28.8645 P             1 RES     
    1993 OM          15.4791    32.4131    28.5169 OM            1 RES     
    1994 OM          18.1586    32.4936    28.2725 OM            1 RES     
    1995 OA          16.9802    33.3274    30.4514 OA            1 RES     
    1996 CH2         17.0741    31.9641    31.0327 CH2           1 RES     
    1997 CH1         16.5589    31.9039    32.2880 CH1           1 RES     
    1998 OE          15.3946    31.4518    33.0632 OE            1 RES     
    1999 C           15.1036    30.3244    32.1175 C             1 RES     
    2000 O           15.7621    30.0731    31.1094 O             1 RES     
    2001 CH2         14.1018    29.6021    32.7877 CH2           1 RES     
    2002 CH2         13.6549    30.1553    34.1537 CH2           1 RES     
    2003 CH2         12.7032    29.1504    34.8288 CH2           1 RES     
    2004 CH2         12.2563    29.7035    36.1948 CH2           1 RES     
    2005 CH2         11.3046    28.6986    36.8700 CH2           1 RES     
    2006 CH2         10.8577    29.2518    38.2360 CH2           1 RES     
    2007 CH2          9.9060    28.2468    38.9112 CH2           1 RES     
    2008 CH2          9.4591    28.8000    40.2771 CH2           1 RES     
    2009 CH2          8.5074    27.7950    40.9523 CH2           1 RES     
    2010 CH2          8.0605    28.3482    42.3183 CH2           1 RES     
    2011 CH2          7.1088    27.3433    42.9935 CH2           1 RES     
    2012 CH2          6.6619    27.8964    44.3594 CH2           1 RES     
    2013 CH2          5.7102    26.8915    45.0346 CH2           1 RES     
    2014 CH2          5.2633    27.4447    46.4006 CH2           1 RES     
    2015 CH2          4.3115    26.4397    47.0758 CH2           1 RES     
    2016 CH2          3.8647    26.9929    48.4418 CH2           1 RES     
    2017 CH3          2.9562    26.0336    49.0862 CH3           1 RES     
    2018 CH2         16.5155    33.4365    32.1432 CH2           1 RES     
    2019 OE          16.1805    33.9273    33.4816 OE            1 RES     
    2020 C           16.1772    35.3962    33.1778 C             1 RES     
    2021 O           16.4097    35.8792    32.0707 O             1 RES     
    2022 CH2         15.6667    35.9607    34.3590 CH2           1 RES     
    2023 CH2         15.3143    34.9787    35.4918 CH2           1 RES     
    2024 CH2         14.5973    35.7365    36.6245 CH2           1 RES     
    2025 CH2         14.2449    34.7545    37.7573 CH2           1 RES     
    2026 CH2         13.5278    35.5123    38.8901 CH2           1 RES     
    2027 CH2         13.1754    34.5303    40.0228 CH2           1 RES     
    2028 CH2         12.4584    35.2881    41.1556 CH2           1 RES     
    2029 CH2         12.1060    34.3061    42.2883 CH2           1 RES     
    2030 CH2         11.3889    35.0639    43.4211 CH2           1 RES     
    2031 CH2         11.0365    34.0819    44.5538 CH2           1 RES     
    2032 CH2         10.3195    34.8397    45.6866 CH2           1 RES     
    2033 CH2          9.9671    33.8577    46.8193 CH2           1 RES     
    2034 CH2          9.2500    34.6155    47.9521 CH2           1 RES     
    2035 CH2          8.8976    33.6335    49.0848 CH2           1 RES     
    2036 CH2          8.1806    34.3913    50.2176 CH2           1 RES     
    2037 CH2          7.8282    33.4094    51.3504 CH2           1 RES     
    2038 CH3          7.1437    34.1327    52.4316 CH3           1 RES     
    2039 CH3          0.5128    24.4585    24.3082 CH3           1 RES     
    2040 CH3         -0.7440    22.4871    24.5677 CH3           1 RES     
    2041 CH3          1.4053    22.4151    24.1702 CH3           1 RES     
    2042 NL           0.4322    23.1003    24.7484 NL            1 RES     
    2043 CH2          0.7988    23.0550    26.0908 CH2           1 RES     
    2044 CH2         -0.3494    23.8571    26.7311 CH2           1 RES     
    2045 OA          -0.1441    23.9301    28.2000 OA            1 RES     
    2046 P           -0.8744    22.6711    28.8645 P             1 RES     
    2047 OM          -2.4307    22.8027    28.5169 OM            1 RES     
    2048 OM          -0.1699    21.3622    28.2725 OM            1 RES     
    2049 OA          -0.6753    22.7144    30.4514 OA            1 RES     
    2050 CH2         -1.3644    21.5343    31.0327 CH2           1 RES     
    2051 CH1         -1.8242    21.7743    32.2880 CH1           1 RES     
    2052 OE          -3.0412    22.0553    33.0632 OE            1 RES     
    2053 C           -3.9159    21.2868    32.1175 C             1 RES     
    2054 O           -3.5128    20.7086    31.1094 O             1 RES     
    2055 CH2         -5.1505    21.2530    32.7877 CH2           1 RES     
    2056 CH2         -5.2088    21.9617    34.1537 CH2           1 RES     
    2057 CH2         -6.5610    21.6661    34.8288 CH2           1 RES     
    2058 CH2         -6.6194    22.3748    36.1948 CH2           1 RES     
    2059 CH2         -7.9715    22.0791    36.8700 CH2           1 RES     
    2060 CH2         -8.0299    22.7878    38.2360 CH2           1 RES     
    2061 CH2         -9.3821    22.4922    38.9112 CH2           1 RES     
    2062 CH2         -9.4404    23.2009    40.2771 CH2           1 RES     
    2063 CH2        -10.7926    22.9052    40.9523 CH2           1 RES     
    2064 CH2        -10.8510    23.6140    42.3183 CH2           1 RES     
    2065 CH2        -12.2031    23.3183    42.9935 CH2           1 RES     
    2066 CH2        -12.2615    24.0270    44.3594 CH2           1 RES     
    2067 CH2        -13.6136    23.7314    45.0346 CH2           1 RES     
    2068 CH2        -13.6720    24.4401    46.4006 CH2           1 RES     
    2069 CH2        -15.0242    24.1444    47.0758 CH2           1 RES     
    2070 CH2        -15.0825    24.8531    48.4418 CH2           1 RES     
    2071 CH3        -16.3732    24.5709    49.0862 CH3           1 RES     
    2072 CH2         -0.9982    23.0659    32.1432 CH2           1 RES     
    2073 OE          -0.9991    23.6602    33.4816 OE            1 RES     
    2074 C           -0.1757    24.8766    33.1778 C             1 RES     
    2075 O            0.2882    25.1452    32.0707 O             1 RES     
    2076 CH2         -0.2803    25.6304    34.3590 CH2           1 RES     
    2077 CH2         -1.1240    25.0167    35.4918 CH2           1 RES     
    2078 CH2         -1.2907    26.0465    36.6245 CH2           1 RES     
    2079 CH2         -2.1343    25.4328    37.7573 CH2           1 RES     
    2080 CH2         -2.3011    26.4627    38.8901 CH2           1 RES     
    2081 CH2         -3.1447    25.8489    40.0228 CH2           1 RES     
    2082 CH2         -3.3114    26.8788    41.1556 CH2           1 RES     
    2083 CH2         -4.1551    26.2650    42.2883 CH2           1 RES     
    2084 CH2         -4.3218    27.2949    43.4211 CH2           1 RES     
    2085 CH2         -5.1654    26.6811    44.5538 CH2           1 RES     
    2086 CH2         -5.3322    27.7110    45.6866 CH2           1 RES     
    2087 CH2         -6.1758    27.0972    46.8193 CH2           1 RES     
    2088 CH2         -6.3425    28.1271    47.9521 CH2           1 RES     
    2089 CH2         -7.1862    27.5133    49.0848 CH2           1 RES     
    2090 CH2         -7.3529    28.5432    50.2176 CH2           1 RES     
    2091 CH2         -8.1965    27.9294    51.3504 CH2           1 RES     
    2092 CH3         -8.3557    28.9125    52.4316 CH3           1 RES     
    2093 CH3          6.0024    18.9689    24.3082 CH3           1 RES     
    2094 CH3          5.4636    16.6939    24.5677 CH3           1 RES     
    2095 CH3          7.5171    17.3325    24.1702 CH3           1 RES     
    2096 NL           6.3729    17.6597    24.7484 NL            1 RES     
    2097 CH2          6.7339    17.7375    26.0908 CH2           1 RES     
    2098 CH2          5.3859    18.1175    26.7311 CH2           1 RES     
    2099 OA           5.5558    18.2539    28.2000 OA            1 RES     
    2100 P            5.2799    16.8248    28.8645 P             1 RES     
    2101 OM           3.7670    16.4373    28.5169 OM            1 RES     
    2102 OM           6.3757    15.8203    28.2725 OM            1 RES     
    2103 OA           5.4538    16.9311    30.4514 OA            1 RES     
    2104 CH2          5.1910    15.5901    31.0327 CH2           1 RES     
    2105 CH1          4.6778    15.6655    32.2880 CH1           1 RES     
    2106 OE           3.4361    15.5308    33.0632 OE            1 RES     
    2107 C            2.8627    14.5175    32.1175 C             1 RES     
    2108 O            3.4335    14.1040    31.1094 O             1 RES     
    2109 CH2          1.7079    14.0796    32.7877 CH2           1 RES     
    2110 CH2          1.4197    14.7298    34.1537 CH2           1 RES     
    2111 CH2          0.2400    14.0060    34.8288 CH2           1 RES     
    2112 CH2         -0.0482    14.6561    36.1948 CH2           1 RES     
    2113 CH2         -1.2280    13.9323    36.8700 CH2           1 RES     
    2114 CH2         -1.5161    14.5824    38.2360 CH2           1 RES     
    2115 CH2         -2.6959    13.8587    38.9112 CH2           1 RES     
    2116 CH2         -2.9840    14.5088    40.2771 CH2           1 RES     
    2117 CH2         -4.1638    13.7850    40.9523 CH2           1 RES     
    2118 CH2         -4.4519    14.4351    42.3183 CH2           1 RES     
    2119 CH2         -5.6317    13.7113    42.9935 CH2           1 RES     
    2120 CH2         -5.9198    14.3615    44.3594 CH2           1 RES     
    2121 CH2         -7.0996    13.6377    45.0346 CH2           1 RES     
    2122 CH2         -7.3878    14.2878    46.4006 CH2           1 RES     
    2123 CH2         -8.5675    13.5640    47.0758 CH2           1 RES     
    2124 CH2         -8.8557    14.2141    48.4418 CH2           1 RES     
    2125 CH3         -9.9818    13.5232    49.0862 CH3           1 RES     
    2126 CH2          5.0333    17.1569    32.1432 CH2           1 RES     
    2127 OE           4.8370    17.7179    33.4816 OE            1 RES     
    2128 C            5.2147    19.1374    33.1778 C             1 RES     
    2129 O            5.5645    19.5436    32.0707 O             1 RES     
    2130 CH2          4.8681    19.8149    34.3590 CH2           1 RES     
    2131 CH2          4.2731    18.9579    35.4918 CH2           1 RES     
    2132 CH2          3.7771    19.8757    36.6245 CH2           1 RES     
    2133 CH2          3.1821    19.0187    37.7573 CH2           1 RES     
    2134 CH2          2.6861    19.9365    38.8901 CH2           1 RES     
    2135 CH2          2.0911    19.0795    40.0228 CH2           1 RES     
    2136 CH2          1.5950    19.9973    41.1556 CH2           1 RES     
    2137 CH2          1.0001    19.1402    42.2883 CH2           1 RES     
    2138 CH2          0.5040    20.0581    43.4211 CH2           1 RES     
    2139 CH2         -0.0909    19.2010    44.5538 CH2           1 RES     
    2140 CH2         -0.5870    20.1188    45.6866 CH2           1 RES     
    2141 CH2         -1.1819    19.2618    46.8193 CH2           1 RES     
    2142 CH2         -1.6780    20.1796    47.9521 CH2           1 RES     
    2143 CH2         -2.2729    19.3226    49.0848 CH2           1 RES     
    2144 CH2         -2.7690    20.2404    50.2176 CH2           1 RES     
    2145 CH2         -3.3639    19.3834    51.3504 CH2           1 RES     
    2146 CH3         -3.8374    20.2595    52.4316 CH3           1 RES     
    2147 CH3         11.4920    35.4377    24.3082 CH3           1 RES     
    2148 CH3         10.6923    33.2408    24.5677 CH3           1 RES     
    2149 CH3         12.8062    33.6363    24.1702 CH3           1 RES     
    2150 NL          11.7077    34.0943    24.7484 NL            1 RES     
    2151 CH2         12.0754    34.1296    26.0908 CH2           1 RES     
    2152 CH2         10.7807    34.6638    26.7311 CH2           1 RES     
    2153 OA          10.9653    34.7796    28.2000 OA            1 RES     
    2154 P           10.5251    33.3922    28.8645 P             1 RES     
    2155 OM           8.9773    33.1834    28.5169 OM            1 RES     
    2156 OM          11.4965    32.2671    28.2725 OM            1 RES     
    2157 OA          10.7101    33.4776    30.4514 OA            1 RES     
    2158 CH2         10.2931    32.1763    31.0327 CH2           1 RES     
    2159 CH1          9.7922    32.3109    32.2880 CH1           1 RES     
    2160 OE           8.5433    32.3215    33.0632 OE            1 RES     
    2161 C            7.8559    31.3817    32.1175 C             1 RES     
    2162 O            8.3747    30.9046    31.1094 O             1 RES     
    2163 CH2          6.6580    31.0812    32.7877 CH2           1 RES     
    2164 CH2          6.4474    31.7604    34.1537 CH2           1 RES     
    2165 CH2          5.1915    31.1787    34.8288 CH2           1 RES     
    2166 CH2          4.9809    31.8580    36.1948 CH2           1 RES     
    2167 CH2          3.7249    31.2763    36.8700 CH2           1 RES     
    2168 CH2          3.5144    31.9555    38.2360 CH2           1 RES     
    2169 CH2          2.2584    31.3739    38.9112 CH2           1 RES     
    2170 CH2          2.0479    32.0531    40.2771 CH2           1 RES     
    2171 CH2          0.7919    31.4714    40.9523 CH2           1 RES     
    2172 CH2          0.5813    32.1507    42.3183 CH2           1 RES     
    2173 CH2         -0.6746    31.5690    42.9935 CH2           1 RES     
    2174 CH2         -0.8852    32.2482    44.3594 CH2           1 RES     
    2175 CH2         -2.1411    31.6666    45.0346 CH2           1 RES     
    2176 CH2         -2.3517    32.3458    46.4006 CH2           1 RES     
    2177 CH2         -3.6077    31.7642    47.0758 CH2           1 RES     
    2178 CH2         -3.8182    32.4434    48.4418 CH2           1 RES     
    2179 CH3         -5.0171    31.8882    49.0862 CH3           1 RES     
    2180 CH2         10.3188    33.7508    32.1432 CH2           1 RES     
    2181 OE          10.1890    34.3308    33.4816 OE            1 RES     
    2182 C           10.7293    35.6967    33.1778 C             1 RES     
    2183 O           11.1239    36.0595    32.0707 O             1 RES     
    2184 CH2         10.4638    36.4100    34.3590 CH2           1 RES     
    2185 CH2          9.7732    35.6279    35.4918 CH2           1 RES     
    2186 CH2          9.3873    36.5972    36.6245 CH2           1 RES     
    2187 CH2          8.6967    35.8152    37.7573 CH2           1 RES     
    2188 CH2          8.3107    36.7845    38.8901 CH2           1 RES     
    2189 CH2          7.6201    36.0025    40.0228 CH2           1 RES     
    2190 CH2          7.2342    36.9718    41.1556 CH2           1 RES     
    2191 CH2          6.5436    36.1897    42.2883 CH2           1 RES     
    2192 CH2          6.1577    37.1590    43.4211 CH2           1 RES     
    2193 CH2          5.4671    36.3770    44.5538 CH2           1 RES     
    2194 CH2          5.0811    37.3463    45.6866 CH2           1 RES     
    2195 CH2          4.3905    36.5643    46.8193 CH2           1 RES     
    2196 CH2          4.0046    37.5336    47.9521 CH2           1 RES     
    2197 CH2          3.3140    36.7516    49.0848 CH2           1 RES     
    2198 CH2          2.9281    37.7208    50.2176 CH2           1 RES     
    2199 CH2          2.2375    36.9388    51.3504 CH2           1 RES     
    2200 CH3          1.8691    37.8640    52.4316 CH3           1 RES     
    2201 CH3         11.4920     7.9896    24.3082 CH3           1 RES     
    2202 CH3         11.2988     5.6597    24.5677 CH3           1 RES     
    2203 CH3         13.2340     6.5977    24.1702 CH3           1 RES     
    2204 NL          12.0537     6.7504    24.7484 NL            1 RES     
    2205 CH2         12.3991     6.8812    26.0908 CH2           1 RES     
    2206 CH2         11.0095     7.0558    26.7311 CH2           1 RES     
    2207 OA          11.1571     7.2160    28.2000 OA            1 RES     
    2208 P           11.0976     5.7617    28.8645 P             1 RES     
    2209 OM           9.6594     5.1528    28.5169 OM            1 RES     
    2210 OM          12.3310     4.9320    28.2725 OM            1 RES     
    2211 OA          11.2536     5.8928    30.4514 OA            1 RES     
    2212 CH2         11.1939     4.5276    31.0327 CH2           1 RES     
    2213 CH1         10.6753     4.5256    32.2880 CH1           1 RES     
    2214 OE           9.4676     4.2071    33.0632 OE            1 RES     
    2215 C            9.0518     3.1195    32.1175 C             1 RES     
    2216 O            9.6779     2.7958    31.1094 O             1 RES     
    2217 CH2          7.9752     2.5143    32.7877 CH2           1 RES     
    2218 CH2          7.5933     3.1141    34.1537 CH2           1 RES     
    2219 CH2          6.5348     2.2223    34.8288 CH2           1 RES     
    2220 CH2          6.1528     2.8222    36.1948 CH2           1 RES     
    2221 CH2          5.0943     1.9304    36.8700 CH2           1 RES     
    2222 CH2          4.7123     2.5303    38.2360 CH2           1 RES     
    2223 CH2          3.6538     1.6385    38.9112 CH2           1 RES     
    2224 CH2          3.2719     2.2384    40.2771 CH2           1 RES     
    2225 CH2          2.2133     1.3466    40.9523 CH2           1 RES     
    2226 CH2          1.8314     1.9465    42.3183 CH2           1 RES     
    2227 CH2          0.7728     1.0547    42.9935 CH2           1 RES     
    2228 CH2          0.3909     1.6546    44.3594 CH2           1 RES     
    2229 CH2         -0.6677     0.7628    45.0346 CH2           1 RES     
    2230 CH2         -1.0496     1.3627    46.4006 CH2           1 RES     
    2231 CH2         -2.1081     0.4709    47.0758 CH2           1 RES     
    2232 CH2         -2.4901     1.0707    48.4418 CH2           1 RES     
    2233 CH3         -3.5005     0.2195    49.0862 CH3           1 RES     
    2234 CH2         10.8042     6.0534    32.1432 CH2           1 RES     
    2235 OE          10.5264     6.5787    33.4816 OE            1 RES     
    2236 C           10.6880     8.0387    33.1778 C             1 RES     
    2237 O           10.9732     8.4925    32.0707 O             1 RES     
    2238 CH2         10.2441     8.6569    34.3590 CH2           1 RES     
    2239 CH2          9.7837     7.7207    35.4918 CH2           1 RES     
    2240 CH2          9.1563     8.5542    36.6245 CH2           1 RES     
    2241 CH2          8.6959     7.6180    37.7573 CH2           1 RES     
    2242 CH2          8.0684     8.4515    38.8901 CH2           1 RES     
    2243 CH2          7.6080     7.5153    40.0228 CH2           1 RES     
    2244 CH2          6.9805     8.3488    41.1556 CH2           1 RES     
    2245 CH2          6.5202     7.4126    42.2883 CH2           1 RES     
    2246 CH2          5.8927     8.2461    43.4211 CH2           1 RES     
    2247 CH2          5.4323     7.3098    44.5538 CH2           1 RES     
    2248 CH2          4.8048     8.1434    45.6866 CH2           1 RES     
    2249 CH2          4.3444     7.2071    46.8193 CH2           1 RES     
    2250 CH2          3.7170     8.0406    47.9521 CH2           1 RES     
    2251 CH2          3.2566     7.1044    49.0848 CH2           1 RES     
    2252 CH2          2.6291     7.9379    50.2176 CH2           1 RES     
    2253 CH2          2.1687     7.0017    51.3504 CH2           1 RES     
    2254 CH3          1.5698     7.7973    52.4316 CH3           1 RES     
    2255 CH3          0.5128    35.4377    24.3082 CH3           1 RES     
    2256 CH3          1.0098    33.1533    24.5677 CH3           1 RES     
    2257 CH3          2.5858    34.6165    24.1702 CH3           1 RES     
    2258 NL           1.4125    34.4171    24.7484 NL            1 RES     
    2259 CH2          1.7045    34.6433    26.0908 CH2           1 RES     
    2260 CH2          0.3246    34.4036    26.7311 CH2           1 RES     
    2261 OA           0.4189    34.6000    28.2000 OA            1 RES     
    2262 P            0.7876    33.1919    28.8645 P             1 RES     
    2263 OM          -0.4094    32.1888    28.5169 OM            1 RES     
    2264 OM           2.2098    32.7595    28.2725 OM            1 RES     
    2265 OA           0.8984    33.3629    30.4514 OA            1 RES     
    2266 CH2          1.2409    32.0401    31.0327 CH2           1 RES     
    2267 CH1          0.7455    31.8863    32.2880 CH1           1 RES     
    2268 OE          -0.3161    31.2283    33.0632 OE            1 RES     
    2269 C           -0.3954    30.0667    32.1175 C             1 RES     
    2270 O            0.2981    29.9404    31.1094 O             1 RES     
    2271 CH2         -1.2477    29.1729    32.7877 CH2           1 RES     
    2272 CH2         -1.7884    29.6347    34.1537 CH2           1 RES     
    2273 CH2         -2.5397    28.4722    34.8288 CH2           1 RES     
    2274 CH2         -3.0804    28.9340    36.1948 CH2           1 RES     
    2275 CH2         -3.8317    27.7715    36.8700 CH2           1 RES     
    2276 CH2         -4.3724    28.2333    38.2360 CH2           1 RES     
    2277 CH2         -5.1237    27.0709    38.9112 CH2           1 RES     
    2278 CH2         -5.6644    27.5327    40.2771 CH2           1 RES     
    2279 CH2         -6.4157    26.3702    40.9523 CH2           1 RES     
    2280 CH2         -6.9564    26.8320    42.3183 CH2           1 RES     
    2281 CH2         -7.7077    25.6695    42.9935 CH2           1 RES     
    2282 CH2         -8.2484    26.1313    44.3594 CH2           1 RES     
    2283 CH2         -8.9997    24.9688    45.0346 CH2           1 RES     
    2284 CH2         -9.5404    25.4306    46.4006 CH2           1 RES     
    2285 CH2        -10.2917    24.2681    47.0758 CH2           1 RES     
    2286 CH2        -10.8324    24.7300    48.4418 CH2           1 RES     
    2287 CH3        -11.5495    23.6203    49.0862 CH3           1 RES     
    2288 CH2          0.4217    33.3849    32.1432 CH2           1 RES     
    2289 OE           0.0023    33.8060    33.4816 OE            1 RES     
    2290 C           -0.2704    35.2494    33.1778 C             1 RES     
    2291 O           -0.1305    35.7668    32.0707 O             1 RES     
    2292 CH2         -0.8758    35.7106    34.3590 CH2           1 RES     
    2293 CH2         -1.0420    34.6806    35.4918 CH2           1 RES     
    2294 CH2         -1.8859    35.2940    36.6245 CH2           1 RES     
    2295 CH2         -2.0522    34.2641    37.7573 CH2           1 RES     
    2296 CH2         -2.8961    34.8775    38.8901 CH2           1 RES     
    2297 CH2         -3.0624    33.8475    40.0228 CH2           1 RES     
    2298 CH2         -3.9063    34.4609    41.1556 CH2           1 RES     
    2299 CH2         -4.0725    33.4309    42.2883 CH2           1 RES     
    2300 CH2         -4.9165    34.0443    43.4211 CH2           1 RES     
    2301 CH2         -5.0827    33.0143    44.5538 CH2           1 RES     
    2302 CH2         -5.9266    33.6277    45.6866 CH2           1 RES     
    2303 CH2         -6.0929    32.5978    46.8193 CH2           1 RES     
    2304 CH2         -6.9368    33.2112    47.9521 CH2           1 RES     
    2305 CH2         -7.1031    32.1812    49.0848 CH2           1 RES     
    2306 CH2         -7.9470    32.7946    50.2176 CH2           1 RES     
    2307 CH2         -8.1132    31.7646    51.3504 CH2           1 RES     
    2308 CH3         -8.9188    32.3501    52.4316 CH3           1 RES     
    2309 CH3         22.4712    29.9481    24.3082 CH3           1 RES     
    2310 CH3         22.5319    27.6110    24.5677 CH3           1 RES     
    2311 CH3         24.3540    28.7534    24.1702 CH3           1 RES     
    2312 NL          23.1641    28.7771    24.7484 NL            1 RES     
    2313 CH2         23.4933    28.9447    26.0908 CH2           1 RES     
    2314 CH2         22.0929    28.9674    26.7311 CH2           1 RES     
    2315 OA          22.2222    29.1427    28.2000 OA            1 RES     
    2316 P           22.3209    27.6906    28.8645 P             1 RES     
    2317 OM          20.9573    26.9292    28.5169 OM            1 RES     
    2318 OM          23.6370    26.9996    28.2725 OM            1 RES     
    2319 OA          22.4618    27.8378    30.4514 OA            1 RES     
    2320 CH2         22.5506    26.4742    31.0327 CH2           1 RES     
    2321 CH1         22.0352    26.4159    32.2880 CH1           1 RES     
    2322 OE          20.8692    25.9682    33.0632 OE            1 RES     
    2323 C           20.5739    24.8420    32.1175 C             1 RES     
    2324 O           21.2314    24.5882    31.1094 O             1 RES     
    2325 CH2         19.5694    24.1235    32.7877 CH2           1 RES     
    2326 CH2         19.1246    24.6783    34.1537 CH2           1 RES     
    2327 CH2         18.1691    23.6770    34.8288 CH2           1 RES     
    2328 CH2         17.7243    24.2318    36.1948 CH2           1 RES     
    2329 CH2         16.7687    23.2305    36.8700 CH2           1 RES     
    2330 CH2         16.3240    23.7854    38.2360 CH2           1 RES     
    2331 CH2         15.3684    22.7840    38.9112 CH2           1 RES     
    2332 CH2         14.9237    23.3389    40.2771 CH2           1 RES     
    2333 CH2         13.9681    22.3375    40.9523 CH2           1 RES     
    2334 CH2         13.5234    22.8924    42.3183 CH2           1 RES     
    2335 CH2         12.5678    21.8910    42.9935 CH2           1 RES     
    2336 CH2         12.1231    22.4459    44.3594 CH2           1 RES     
    2337 CH2         11.1675    21.4446    45.0346 CH2           1 RES     
    2338 CH2         10.7228    21.9994    46.4006 CH2           1 RES     
    2339 CH2          9.7672    20.9981    47.0758 CH2           1 RES     
    2340 CH2          9.3225    21.5529    48.4418 CH2           1 RES     
    2341 CH3          8.4103    20.5971    49.0862 CH3           1 RES     
    2342 CH2         21.9976    27.9486    32.1432 CH2           1 RES     
    2343 OE          21.6644    28.4407    33.4816 OE            1 RES     
    2344 C           21.6666    29.9097    33.1778 C             1 RES     
    2345 O           21.9010    30.3918    32.0707 O             1 RES     
    2346 CH2         21.1583    30.4761    34.3590 CH2           1 RES     
    2347 CH2         20.8022    29.4954    35.4918 CH2           1 RES     
    2348 CH2         20.0880    30.2559    36.6245 CH2           1 RES     
    2349 CH2         19.7319    29.2753    37.7573 CH2           1 RES     
    2350 CH2         19.0177    30.0358    38.8901 CH2           1 RES     
    2351 CH2         18.6617    29.0551    40.0228 CH2           1 RES     
    2352 CH2         17.9474    29.8156    41.1556 CH2           1 RES     
    2353 CH2         17.5914    28.8350    42.2883 CH2           1 RES     
    2354 CH2         16.8771    29.5955    43.4211 CH2           1 RES     
    2355 CH2         16.5211    28.6148    44.5538 CH2           1 RES     
    2356 CH2         15.8069    29.3753    45.6866 CH2           1 RES     
    2357 CH2         15.4508    28.3947    46.8193 CH2           1 RES     
    2358 CH2         14.7366    29.1552    47.9521 CH2           1 RES     
    2359 CH2         14.3805    28.1745    49.0848 CH2           1 RES     
    2360 CH2         13.6663    28.9350    50.2176 CH2           1 RES     
    2361 CH2         13.3102    27.9544    51.3504 CH2           1 RES     
    2362 CH3         12.6285    28.6803    52.4316 CH3           1 RES     
    2363 CH3         33.4505    24.4585    24.3082 CH3           1 RES     
    2364 CH3         32.7589    22.2252    24.5677 CH3           1 RES     
    2365 CH3         34.8509    22.7233    24.1702 CH3           1 RES     
    2366 NL          33.7314    23.1272    24.7484 NL            1 RES     
    2367 CH2         34.0970    23.1804    26.0908 CH2           1 RES     
    2368 CH2         32.7777    23.6508    26.7311 CH2           1 RES     
    2369 OA          32.9565    23.7754    28.2000 OA            1 RES     
    2370 P           32.5845    22.3682    28.8645 P             1 RES     
    2371 OM          31.0488    22.0842    28.5169 OM            1 RES     
    2372 OM          33.6097    21.2918    28.2725 OM            1 RES     
    2373 OA          32.7651    22.4626    30.4514 OA            1 RES     
    2374 CH2         32.4122    21.1424    31.0327 CH2           1 RES     
    2375 CH1         31.9053    21.2524    32.2880 CH1           1 RES     
    2376 OE          30.6573    21.2021    33.0632 OE            1 RES     
    2377 C           30.0166    20.2299    32.1175 C             1 RES     
    2378 O           30.5581    19.7787    31.1094 O             1 RES     
    2379 CH2         28.8347    19.8713    32.7877 CH2           1 RES     
    2380 CH2         28.5913    20.5394    34.1537 CH2           1 RES     
    2381 CH2         27.3652    19.8972    34.8288 CH2           1 RES     
    2382 CH2         27.1217    20.5654    36.1948 CH2           1 RES     
    2383 CH2         25.8957    19.9231    36.8700 CH2           1 RES     
    2384 CH2         25.6522    20.5913    38.2360 CH2           1 RES     
    2385 CH2         24.4261    19.9490    38.9112 CH2           1 RES     
    2386 CH2         24.1827    20.6172    40.2771 CH2           1 RES     
    2387 CH2         22.9566    19.9749    40.9523 CH2           1 RES     
    2388 CH2         22.7131    20.6431    42.3183 CH2           1 RES     
    2389 CH2         21.4871    20.0009    42.9935 CH2           1 RES     
    2390 CH2         21.2436    20.6690    44.3594 CH2           1 RES     
    2391 CH2         20.0175    20.0268    45.0346 CH2           1 RES     
    2392 CH2         19.7741    20.6949    46.4006 CH2           1 RES     
    2393 CH2         18.5480    20.0527    47.0758 CH2           1 RES     
    2394 CH2         18.3045    20.7208    48.4418 CH2           1 RES     
    2395 CH3         17.1342    20.1078    49.0862 CH3           1 RES     
    2396 CH2         32.3609    22.7163    32.1432 CH2           1 RES     
    2397 OE          32.2031    23.2893    33.4816 OE            1 RES     
    2398 C           32.6760    24.6800    33.1778 C             1 RES     
    2399 O           33.0525    25.0615    32.0707 O             1 RES     
    2400 CH2         32.3760    25.3794    34.3590 CH2           1 RES     
    2401 CH2         31.7244    24.5646    35.4918 CH2           1 RES     
    2402 CH2         31.2917    25.5139    36.6245 CH2           1 RES     
    2403 CH2         30.6400    24.6992    37.7573 CH2           1 RES     
    2404 CH2         30.2073    25.6485    38.8901 CH2           1 RES     
    2405 CH2         29.5557    24.8337    40.0228 CH2           1 RES     
    2406 CH2         29.1229    25.7830    41.1556 CH2           1 RES     
    2407 CH2         28.4713    24.9682    42.2883 CH2           1 RES     
    2408 CH2         28.0385    25.9175    43.4211 CH2           1 RES     
    2409 CH2         27.3869    25.1027    44.5538 CH2           1 RES     
    2410 CH2         26.9541    26.0520    45.6866 CH2           1 RES     
    2411 CH2         26.3025    25.2373    46.8193 CH2           1 RES     
    2412 CH2         25.8697    26.1866    47.9521 CH2           1 RES     
    2413 CH2         25.2181    25.3718    49.0848 CH2           1 RES     
    2414 CH2         24.7854    26.3211    50.2176 CH2           1 RES     
    2415 CH2         24.1337    25.5063    51.3504 CH2           1 RES     
    2416 CH3         23.7206    26.4125    52.4316 CH3           1 RES     
    2417 CH3         22.4712     7.9896    24.3082 CH3           1 RES     
    2418 CH3         21.9233     5.7168    24.5677 CH3           1 RES     
    2419 CH3         23.9794     6.3472    24.1702 CH3           1 RES     
    2420 NL          22.8364     6.6790    24.7484 NL            1 RES     
    2421 CH2         23.1978     6.7553    26.0908 CH2           1 RES     
    2422 CH2         21.8513     7.1408    26.7311 CH2           1 RES     
    2423 OA          22.0217     7.2765    28.2000 OA            1 RES     
    2424 P           21.7402     5.8485    28.8645 P             1 RES     
    2425 OM          20.2256     5.4671    28.5169 OM            1 RES     
    2426 OM          22.8318     4.8396    28.2725 OM            1 RES     
    2427 OA          21.9144     5.9541    30.4514 OA            1 RES     
    2428 CH2         21.6462     4.6142    31.0327 CH2           1 RES     
    2429 CH1         21.1334     4.6917    32.2880 CH1           1 RES     
    2430 OE          19.8911     4.5619    33.0632 OE            1 RES     
    2431 C           19.3136     3.5509    32.1175 C             1 RES     
    2432 O           19.8828     3.1351    31.1094 O             1 RES     
    2433 CH2         18.1570     3.1178    32.7877 CH2           1 RES     
    2434 CH2         17.8715     3.7690    34.1537 CH2           1 RES     
    2435 CH2         16.6888     3.0500    34.8288 CH2           1 RES     
    2436 CH2         16.4033     3.7013    36.1948 CH2           1 RES     
    2437 CH2         15.2206     2.9823    36.8700 CH2           1 RES     
    2438 CH2         14.9351     3.6336    38.2360 CH2           1 RES     
    2439 CH2         13.7524     2.9145    38.9112 CH2           1 RES     
    2440 CH2         13.4669     3.5658    40.2771 CH2           1 RES     
    2441 CH2         12.2842     2.8468    40.9523 CH2           1 RES     
    2442 CH2         11.9987     3.4981    42.3183 CH2           1 RES     
    2443 CH2         10.8160     2.7791    42.9935 CH2           1 RES     
    2444 CH2         10.5305     3.4304    44.3594 CH2           1 RES     
    2445 CH2          9.3478     2.7113    45.0346 CH2           1 RES     
    2446 CH2          9.0623     3.3626    46.4006 CH2           1 RES     
    2447 CH2          7.8796     2.6436    47.0758 CH2           1 RES     
    2448 CH2          7.5941     3.2949    48.4418 CH2           1 RES     
    2449 CH3          6.4652     2.6085    49.0862 CH3           1 RES     
    2450 CH2         21.4949     6.1816    32.1432 CH2           1 RES     
    2451 OE          21.3008     6.7433    33.4816 OE            1 RES     
    2452 C           21.6842     8.1613    33.1778 C             1 RES     
    2453 O           22.0357     8.5661    32.0707 O             1 RES     
    2454 CH2         21.3403     8.8402    34.3590 CH2           1 RES     
    2455 CH2         20.7419     7.9856    35.4918 CH2           1 RES     
    2456 CH2         20.2496     8.9054    36.6245 CH2           1 RES     
    2457 CH2         19.6512     8.0508    37.7573 CH2           1 RES     
    2458 CH2         19.1588     8.9706    38.8901 CH2           1 RES     
    2459 CH2         18.5604     8.1160    40.0228 CH2           1 RES     
    2460 CH2         18.0681     9.0358    41.1556 CH2           1 RES     
    2461 CH2         17.4697     8.1812    42.2883 CH2           1 RES     
    2462 CH2         16.9773     9.1010    43.4211 CH2           1 RES     
    2463 CH2         16.3789     8.2464    44.5538 CH2           1 RES     
    2464 CH2         15.8866     9.1662    45.6866 CH2           1 RES     
    2465 CH2         15.2882     8.3116    46.8193 CH2           1 RES     
    2466 CH2         14.7958     9.2314    47.9521 CH2           1 RES     
    2467 CH2         14.1974     8.3767    49.0848 CH2           1 RES     
    2468 CH2         13.7051     9.2966    50.2176 CH2           1 RES     
    2469 CH2         13.1067     8.4419    51.3504 CH2           1 RES     
    2470 CH3         12.6367     9.3199    52.4316 CH3           1 RES     
    2471 CH3         22.4712     2.5000    24.3082 CH3           1 RES     
    2472 CH3         21.2714     0.4934    24.5677 CH3           1 RES     
    2473 CH3         23.4220     0.4830    24.1702 CH3           1 RES     
    2474 NL          22.4296     1.1401    24.7484 NL            1 RES     
    2475 CH2         22.7974     1.1053    26.0908 CH2           1 RES     
    2476 CH2         21.6267     1.8742    26.7311 CH2           1 RES     
    2477 OA          21.8298     1.9530    28.2000 OA            1 RES     
    2478 P           21.1358     0.6736    28.8645 P             1 RES     
    2479 OM          19.5764     0.7605    28.5169 OM            1 RES     
    2480 OM          21.8776    -0.6146    28.2725 OM            1 RES     
    2481 OA          21.3336     0.7226    30.4514 OA            1 RES     
    2482 CH2         20.6787    -0.4767    31.0327 CH2           1 RES     
    2483 CH1         20.2121    -0.2501    32.2880 CH1           1 RES     
    2484 OE          18.9876    -0.0041    33.0632 OE            1 RES     
    2485 C           18.1353    -0.7973    32.1175 C             1 RES     
    2486 O           18.5548    -1.3637    31.1094 O             1 RES     
    2487 CH2         16.9022    -0.8664    32.7877 CH2           1 RES     
    2488 CH2         16.8235    -0.1597    34.1537 CH2           1 RES     
    2489 CH2         15.4804    -0.4940    34.8288 CH2           1 RES     
    2490 CH2         15.4017     0.2128    36.1948 CH2           1 RES     
    2491 CH2         14.0586    -0.1215    36.8700 CH2           1 RES     
    2492 CH2         13.9800     0.5852    38.2360 CH2           1 RES     
    2493 CH2         12.6368     0.2510    38.9112 CH2           1 RES     
    2494 CH2         12.5582     0.9577    40.2771 CH2           1 RES     
    2495 CH2         11.2150     0.6234    40.9523 CH2           1 RES     
    2496 CH2         11.1364     1.3302    42.3183 CH2           1 RES     
    2497 CH2          9.7933     0.9959    42.9935 CH2           1 RES     
    2498 CH2          9.7146     1.7026    44.3594 CH2           1 RES     
    2499 CH2          8.3715     1.3684    45.0346 CH2           1 RES     
    2500 CH2          8.2928     2.0751    46.4006 CH2           1 RES     
    2501 CH2          6.9497     1.7408    47.0758 CH2           1 RES     
    2502 CH2          6.8710     2.4476    48.4418 CH2           1 RES     
    2503 CH3          5.5890     2.1285    49.0862 CH3           1 RES     
    2504 CH2         21.0008     1.0647    32.1432 CH2           1 RES     
    2505 OE          20.9828     1.6587    33.4816 OE            1 RES     
    2506 C           21.7711     2.8982    33.1778 C             1 RES     
    2507 O           22.2270     3.1800    32.0707 O             1 RES     
    2508 CH2         21.6449     3.6488    34.3590 CH2           1 RES     
    2509 CH2         20.8192     3.0111    35.4918 CH2           1 RES     
    2510 CH2         20.6230     4.0357    36.6245 CH2           1 RES     
    2511 CH2         19.7973     3.3980    37.7573 CH2           1 RES     
    2512 CH2         19.6011     4.4227    38.8901 CH2           1 RES     
    2513 CH2         18.7754     3.7850    40.0228 CH2           1 RES     
    2514 CH2         18.5793     4.8097    41.1556 CH2           1 RES     
    2515 CH2         17.7535     4.1720    42.2883 CH2           1 RES     
    2516 CH2         17.5574     5.1967    43.4211 CH2           1 RES     
    2517 CH2         16.7317     4.5590    44.5538 CH2           1 RES     
    2518 CH2         16.5355     5.5837    45.6866 CH2           1 RES     
    2519 CH2         15.7098     4.9460    46.8193 CH2           1 RES     
    2520 CH2         15.5136     5.9707    47.9521 CH2           1 RES     
    2521 CH2         14.6879     5.3330    49.0848 CH2           1 RES     
    2522 CH2         14.4918     6.3576    50.2176 CH2           1 RES     
    2523 CH2         13.6660     5.7199    51.3504 CH2           1 RES     
    2524 CH3         13.4788     6.6981    52.4316 CH3           1 RES     
    2525 CH3          0.5128     2.5000    24.3082 CH3           1 RES     
    2526 CH3          0.1635     0.1884    24.5677 CH3           1 RES     
    2527 CH3          2.1573     0.9942    24.1702 CH3           1 RES     
    2528 NL           0.9900     1.2259    24.7484 NL            1 RES     
    2529 CH2          1.3434     1.3332    26.0908 CH2           1 RES     
    2530 CH2         -0.0314     1.6007    26.7311 CH2           1 RES     
    2531 OA           0.1266     1.7507    28.2000 OA            1 RES     
    2532 P           -0.0304     0.3036    28.8645 P             1 RES     
    2533 OM          -1.5062    -0.2073    28.5169 OM            1 RES     
    2534 OM           1.1445    -0.6071    28.2725 OM            1 RES     
    2535 OA           0.1341     0.4239    30.4514 OA            1 RES     
    2536 CH2         -0.0172    -0.9342    31.0327 CH2           1 RES     
    2537 CH1         -0.5348    -0.9013    32.2880 CH1           1 RES     
    2538 OE          -1.7612    -1.1380    33.0632 OE            1 RES     
    2539 C           -2.2490    -2.1952    32.1175 C             1 RES     
    2540 O           -1.6461    -2.5602    31.1094 O             1 RES     
    2541 CH2         -3.3638    -2.7268    32.7877 CH2           1 RES     
    2542 CH2         -3.7046    -2.1026    34.1537 CH2           1 RES     
    2543 CH2         -4.8207    -2.9213    34.8288 CH2           1 RES     
    2544 CH2         -5.1615    -2.2971    36.1948 CH2           1 RES     
    2545 CH2         -6.2775    -3.1157    36.8700 CH2           1 RES     
    2546 CH2         -6.6183    -2.4916    38.2360 CH2           1 RES     
    2547 CH2         -7.7344    -3.3102    38.9112 CH2           1 RES     
    2548 CH2         -8.0751    -2.6861    40.2771 CH2           1 RES     
    2549 CH2         -9.1912    -3.5047    40.9523 CH2           1 RES     
    2550 CH2         -9.5320    -2.8806    42.3183 CH2           1 RES     
    2551 CH2        -10.6480    -3.6992    42.9935 CH2           1 RES     
    2552 CH2        -10.9888    -3.0750    44.3594 CH2           1 RES     
    2553 CH2        -12.1049    -3.8937    45.0346 CH2           1 RES     
    2554 CH2        -12.4457    -3.2695    46.4006 CH2           1 RES     
    2555 CH2        -13.5617    -4.0882    47.0758 CH2           1 RES     
    2556 CH2        -13.9025    -3.4640    48.4418 CH2           1 RES     
    2557 CH3        -14.9678    -4.2454    49.0862 CH3           1 RES     
    2558 CH2         -0.3036     0.6143    32.1432 CH2           1 RES     
    2559 OE          -0.5455     1.1572    33.4816 OE            1 RES     
    2560 C           -0.2861     2.6030    33.1778 C             1 RES     
    2561 O            0.0290     3.0366    32.0707 O             1 RES     
    2562 CH2         -0.6875     3.2496    34.3590 CH2           1 RES     
    2563 CH2         -1.2097     2.3464    35.4918 CH2           1 RES     
    2564 CH2         -1.7798     3.2202    36.6245 CH2           1 RES     
    2565 CH2         -2.3020     2.3170    37.7573 CH2           1 RES     
    2566 CH2         -2.8721     3.1908    38.8901 CH2           1 RES     
    2567 CH2         -3.3943     2.2876    40.0228 CH2           1 RES     
    2568 CH2         -3.9644     3.1614    41.1556 CH2           1 RES     
    2569 CH2         -4.4866     2.2582    42.2883 CH2           1 RES     
    2570 CH2         -5.0567     3.1320    43.4211 CH2           1 RES     
    2571 CH2         -5.5789     2.2288    44.5538 CH2           1 RES     
    2572 CH2         -6.1490     3.1026    45.6866 CH2           1 RES     
    2573 CH2         -6.6712     2.1994    46.8193 CH2           1 RES     
    2574 CH2         -7.2413     3.0732    47.9521 CH2           1 RES     
    2575 CH2         -7.7635     2.1700    49.0848 CH2           1 RES     
    2576 CH2         -8.3336     3.0438    50.2176 CH2           1 RES     
    2577 CH2         -8.8558     2.1406    51.3504 CH2           1 RES     
    2578 CH3         -9.4000     2.9747    52.4316 CH3           1 RES     
    2579 CH3         16.9816    40.9273    24.3082 CH3           1 RES     
    2580 CH3         17.1875    38.5985    24.5677 CH3           1 RES     
    2581 CH3         18.9350    39.8520    24.1702 CH3           1 RES     
    2582 NL          17.7459    39.8017    24.7484 NL            1 RES     
    2583 CH2         18.0641    39.9894    26.0908 CH2           1 RES     
    2584 CH2         16.6650    39.9250    26.7311 CH2           1 RES     
    2585 OA          16.7832    40.1080    28.2000 OA            1 RES     
    2586 P           16.9719    38.6648    28.8645 P             1 RES     
    2587 OM          15.6583    37.8202    28.5169 OM            1 RES     
    2588 OM          18.3285    38.0570    28.2725 OM            1 RES     
    2589 OA          17.1034    38.8205    30.4514 OA            1 RES     
    2590 CH2         17.2768    37.4651    31.0327 CH2           1 RES     
    2591 CH1         16.7660    37.3749    32.2880 CH1           1 RES     
    2592 OE          15.6301    36.8556    33.0632 OE            1 RES     
    2593 C           15.4054    35.7131    32.1175 C             1 RES     
    2594 O           16.0774    35.5007    31.1094 O             1 RES     
    2595 CH2         14.4474    34.9336    32.7877 CH2           1 RES     
    2596 CH2         13.9690    35.4597    34.1537 CH2           1 RES     
    2597 CH2         13.0776    34.4009    34.8288 CH2           1 RES     
    2598 CH2         12.5992    34.9270    36.1948 CH2           1 RES     
    2599 CH2         11.7077    33.8682    36.8700 CH2           1 RES     
    2600 CH2         11.2293    34.3944    38.2360 CH2           1 RES     
    2601 CH2         10.3379    33.3356    38.9112 CH2           1 RES     
    2602 CH2          9.8595    33.8617    40.2771 CH2           1 RES     
    2603 CH2          8.9681    32.8029    40.9523 CH2           1 RES     
    2604 CH2          8.4897    33.3290    42.3183 CH2           1 RES     
    2605 CH2          7.5982    32.2702    42.9935 CH2           1 RES     
    2606 CH2          7.1198    32.7964    44.3594 CH2           1 RES     
    2607 CH2          6.2284    31.7376    45.0346 CH2           1 RES     
    2608 CH2          5.7500    32.2637    46.4006 CH2           1 RES     
    2609 CH2          4.8585    31.2049    47.0758 CH2           1 RES     
    2610 CH2          4.3801    31.7310    48.4418 CH2           1 RES     
    2611 CH3          3.5292    30.7204    49.0862 CH3           1 RES     
    2612 CH2         16.6332    38.9023    32.1432 CH2           1 RES     
    2613 OE          16.2700    39.3727    33.4816 OE            1 RES     
    2614 C           16.1810    40.8389    33.1778 C             1 RES     
    2615 O           16.3849    41.3347    32.0707 O             1 RES     
    2616 CH2         15.6384    41.3727    34.3590 CH2           1 RES     
    2617 CH2         15.3440    40.3718    35.4918 CH2           1 RES     
    2618 CH2         14.5839    41.0864    36.6245 CH2           1 RES     
    2619 CH2         14.2895    40.0855    37.7573 CH2           1 RES     
    2620 CH2         13.5293    40.8001    38.8901 CH2           1 RES     
    2621 CH2         13.2349    39.7993    40.0228 CH2           1 RES     
    2622 CH2         12.4748    40.5139    41.1556 CH2           1 RES     
    2623 CH2         12.1804    39.5130    42.2883 CH2           1 RES     
    2624 CH2         11.4203    40.2276    43.4211 CH2           1 RES     
    2625 CH2         11.1258    39.2267    44.5538 CH2           1 RES     
    2626 CH2         10.3657    39.9414    45.6866 CH2           1 RES     
    2627 CH2         10.0713    38.9405    46.8193 CH2           1 RES     
    2628 CH2          9.3112    39.6551    47.9521 CH2           1 RES     
    2629 CH2          9.0168    38.6542    49.0848 CH2           1 RES     
    2630 CH2          8.2567    39.3689    50.2176 CH2           1 RES     
    2631 CH2          7.9622    38.3680    51.3504 CH2           1 RES     
    2632 CH3          7.2367    39.0501    52.4316 CH3           1 RES     
    2633 CH3         33.4505     2.5000    24.3082 CH3           1 RES     
    2634 CH3         32.1422     0.5624    24.5677 CH3           1 RES     
    2635 CH3         34.2889     0.4338    24.1702 CH3           1 RES     
    2636 NL          33.3342     1.1444    24.7484 NL            1 RES     
    2637 CH2         33.6995     1.0895    26.0908 CH2           1 RES     
    2638 CH2         32.5728     1.9216    26.7311 CH2           1 RES     
    2639 OA          32.7799     1.9891    28.2000 OA            1 RES     
    2640 P           32.0167     0.7498    28.8645 P             1 RES     
    2641 OM          30.4644     0.9223    28.5169 OM            1 RES     
    2642 OM          32.6865    -0.5772    28.2725 OM            1 RES     
    2643 OA          32.2169     0.7878    30.4514 OA            1 RES     
    2644 CH2         31.4970    -0.3737    31.0327 CH2           1 RES     
    2645 CH1         31.0436    -0.1217    32.2880 CH1           1 RES     
    2646 OE          29.8344     0.1912    33.0632 OE            1 RES     
    2647 C           28.9398    -0.5539    32.1175 C             1 RES     
    2648 O           29.3276    -1.1425    31.1094 O             1 RES     
    2649 CH2         27.7048    -0.5552    32.7877 CH2           1 RES     
    2650 CH2         27.6651     0.1548    34.1537 CH2           1 RES     
    2651 CH2         26.3056    -0.1051    34.8288 CH2           1 RES     
    2652 CH2         26.2659     0.6049    36.1948 CH2           1 RES     
    2653 CH2         24.9065     0.3449    36.8700 CH2           1 RES     
    2654 CH2         24.8668     1.0549    38.2360 CH2           1 RES     
    2655 CH2         23.5073     0.7950    38.9112 CH2           1 RES     
    2656 CH2         23.4676     1.5050    40.2771 CH2           1 RES     
    2657 CH2         22.1081     1.2450    40.9523 CH2           1 RES     
    2658 CH2         22.0685     1.9550    42.3183 CH2           1 RES     
    2659 CH2         20.7090     1.6951    42.9935 CH2           1 RES     
    2660 CH2         20.6693     2.4051    44.3594 CH2           1 RES     
    2661 CH2         19.3098     2.1452    45.0346 CH2           1 RES     
    2662 CH2         19.2701     2.8552    46.4006 CH2           1 RES     
    2663 CH2         17.9107     2.5952    47.0758 CH2           1 RES     
    2664 CH2         17.8710     3.3052    48.4418 CH2           1 RES     
    2665 CH3         16.5733     3.0571    49.0862 CH3           1 RES     
    2666 CH2         31.9034     1.1477    32.1432 CH2           1 RES     
    2667 OE          31.9181     1.7418    33.4816 OE            1 RES     
    2668 C           32.7732     2.9361    33.1778 C             1 RES     
    2669 O           33.2440     3.1924    32.0707 O             1 RES     
    2670 CH2         32.6885     3.6924    34.3590 CH2           1 RES     
    2671 CH2         31.8290     3.1011    35.4918 CH2           1 RES     
    2672 CH2         31.6895     4.1350    36.6245 CH2           1 RES     
    2673 CH2         30.8299     3.5437    37.7573 CH2           1 RES     
    2674 CH2         30.6904     4.5776    38.8901 CH2           1 RES     
    2675 CH2         29.8309     3.9862    40.0228 CH2           1 RES     
    2676 CH2         29.6913     5.0202    41.1556 CH2           1 RES     
    2677 CH2         28.8318     4.4288    42.2883 CH2           1 RES     
    2678 CH2         28.6923     5.4627    43.4211 CH2           1 RES     
    2679 CH2         27.8328     4.8714    44.5538 CH2           1 RES     
    2680 CH2         27.6932     5.9053    45.6866 CH2           1 RES     
    2681 CH2         26.8337     5.3140    46.8193 CH2           1 RES     
    2682 CH2         26.6942     6.3479    47.9521 CH2           1 RES     
    2683 CH2         25.8347     5.7565    49.0848 CH2           1 RES     
    2684 CH2         25.6951     6.7905    50.2176 CH2           1 RES     
    2685 CH2         24.8356     6.1991    51.3504 CH2           1 RES     
    2686 CH3         24.7024     7.1860    52.4316 CH3           1 RES     
    2687 CH3         38.9401    40.9273    24.3082 CH3           1 RES     
    2688 CH3         38.8676    38.5906    24.5677 CH3           1 RES     
    2689 CH3         40.7517    39.6273    24.1702 CH3           1 RES     
    2690 NL          39.5651    39.7188    24.7484 NL            1 RES     
    2691 CH2         39.9033    39.8673    26.0908 CH2           1 RES     
    2692 CH2         38.5065    39.9698    26.7311 CH2           1 RES     
    2693 OA          38.6456    40.1375    28.2000 OA            1 RES     
    2694 P           38.6614    38.6820    28.8645 P             1 RES     
    2695 OM          37.2566    37.9996    28.5169 OM            1 RES     
    2696 OM          39.9360    37.9172    28.2725 OM            1 RES     
    2697 OA          38.8104    38.8210    30.4514 OA            1 RES     
    2698 CH2         38.8214    37.4545    31.0327 CH2           1 RES     
    2699 CH1         38.3035    37.4257    32.2880 CH1           1 RES     
    2700 OE          37.1139    37.0452    33.0632 OE            1 RES     
    2701 C           36.7550    35.9376    32.1175 C             1 RES     
    2702 O           37.3970    35.6467    31.1094 O             1 RES     
    2703 CH2         35.7111    35.2775    32.7877 CH2           1 RES     
    2704 CH2         35.2987    35.8568    34.1537 CH2           1 RES     
    2705 CH2         34.2877    34.9115    34.8288 CH2           1 RES     
    2706 CH2         33.8752    35.4908    36.1948 CH2           1 RES     
    2707 CH2         32.8642    34.5455    36.8700 CH2           1 RES     
    2708 CH2         32.4518    35.1248    38.2360 CH2           1 RES     
    2709 CH2         31.4407    34.1795    38.9112 CH2           1 RES     
    2710 CH2         31.0283    34.7588    40.2771 CH2           1 RES     
    2711 CH2         30.0173    33.8135    40.9523 CH2           1 RES     
    2712 CH2         29.6048    34.3928    42.3183 CH2           1 RES     
    2713 CH2         28.5938    33.4475    42.9935 CH2           1 RES     
    2714 CH2         28.1814    34.0268    44.3594 CH2           1 RES     
    2715 CH2         27.1703    33.0815    45.0346 CH2           1 RES     
    2716 CH2         26.7579    33.6608    46.4006 CH2           1 RES     
    2717 CH2         25.7469    32.7155    47.0758 CH2           1 RES     
    2718 CH2         25.3344    33.2948    48.4418 CH2           1 RES     
    2719 CH3         24.3693    32.3925    49.0862 CH3           1 RES     
    2720 CH2         38.3533    38.9581    32.1432 CH2           1 RES     
    2721 OE          38.0487    39.4684    33.4816 OE            1 RES     
    2722 C           38.1346    40.9348    33.1778 C             1 RES     
    2723 O           38.3960    41.4028    32.0707 O             1 RES     
    2724 CH2         37.6594    41.5292    34.3590 CH2           1 RES     
    2725 CH2         37.2480    40.5704    35.4918 CH2           1 RES     
    2726 CH2         36.5783    41.3704    36.6245 CH2           1 RES     
    2727 CH2         36.1669    40.4116    37.7573 CH2           1 RES     
    2728 CH2         35.4972    41.2116    38.8901 CH2           1 RES     
    2729 CH2         35.0858    40.2528    40.0228 CH2           1 RES     
    2730 CH2         34.4161    41.0528    41.1556 CH2           1 RES     
    2731 CH2         34.0047    40.0940    42.2883 CH2           1 RES     
    2732 CH2         33.3350    40.8939    43.4211 CH2           1 RES     
    2733 CH2         32.9236    39.9352    44.5538 CH2           1 RES     
    2734 CH2         32.2539    40.7351    45.6866 CH2           1 RES     
    2735 CH2         31.8425    39.7763    46.8193 CH2           1 RES     
    2736 CH2         31.1728    40.5763    47.9521 CH2           1 RES     
    2737 CH2         30.7615    39.6175    49.0848 CH2           1 RES     
    2738 CH2         30.0917    40.4175    50.2176 CH2           1 RES     
    2739 CH2         29.6804    39.4587    51.3504 CH2           1 RES     
    2740 CH3         29.0411    40.2223    52.4316 CH3           1 RES     
    2741 CH3         33.4505    35.4377    24.3082 CH3           1 RES     
    2742 CH3         32.6598    33.2376    24.5677 CH3           1 RES     
    2743 CH3         34.7720    33.6417    24.1702 CH3           1 RES     
    2744 NL          33.6717    34.0952    24.7484 NL            1 RES     
    2745 CH2         34.0392    34.1320    26.0908 CH2           1 RES     
    2746 CH2         32.7423    34.6609    26.7311 CH2           1 RES     
    2747 OA          32.9264    34.7774    28.2000 OA            1 RES     
    2748 P           32.4920    33.3882    28.8645 P             1 RES     
    2749 OM          30.9451    33.1730    28.5169 OM            1 RES     
    2750 OM          33.4681    32.2671    28.2725 OM            1 RES     
    2751 OA          32.6766    33.4744    30.4514 OA            1 RES     
    2752 CH2         32.2651    32.1714    31.0327 CH2           1 RES     
    2753 CH1         31.7636    32.3039    32.2880 CH1           1 RES     
    2754 OE          30.5146    32.3093    33.0632 OE            1 RES     
    2755 C           29.8311    31.3668    32.1175 C             1 RES     
    2756 O           30.3519    30.8918    31.1094 O             1 RES     
    2757 CH2         28.6344    31.0613    32.7877 CH2           1 RES     
    2758 CH2         28.4211    31.7397    34.1537 CH2           1 RES     
    2759 CH2         27.1675    31.1528    34.8288 CH2           1 RES     
    2760 CH2         26.9542    31.8312    36.1948 CH2           1 RES     
    2761 CH2         25.7006    31.2444    36.8700 CH2           1 RES     
    2762 CH2         25.4872    31.9227    38.2360 CH2           1 RES     
    2763 CH2         24.2337    31.3359    38.9112 CH2           1 RES     
    2764 CH2         24.0203    32.0143    40.2771 CH2           1 RES     
    2765 CH2         22.7668    31.4274    40.9523 CH2           1 RES     
    2766 CH2         22.5534    32.1058    42.3183 CH2           1 RES     
    2767 CH2         21.2999    31.5190    42.9935 CH2           1 RES     
    2768 CH2         21.0865    32.1973    44.3594 CH2           1 RES     
    2769 CH2         19.8330    31.6105    45.0346 CH2           1 RES     
    2770 CH2         19.6196    32.2889    46.4006 CH2           1 RES     
    2771 CH2         18.3661    31.7020    47.0758 CH2           1 RES     
    2772 CH2         18.1527    32.3804    48.4418 CH2           1 RES     
    2773 CH3         16.9561    31.8202    49.0862 CH3           1 RES     
    2774 CH2         32.2842    33.7460    32.1432 CH2           1 RES     
    2775 OE          32.1521    34.3254    33.4816 OE            1 RES     
    2776 C           32.6867    35.6936    33.1778 C             1 RES     
    2777 O           33.0798    36.0579    32.0707 O             1 RES     
    2778 CH2         32.4183    36.4057    34.3590 CH2           1 RES     
    2779 CH2         31.7309    35.6209    35.4918 CH2           1 RES     
    2780 CH2         31.3410    36.5886    36.6245 CH2           1 RES     
    2781 CH2         30.6536    35.8037    37.7573 CH2           1 RES     
    2782 CH2         30.2637    36.7714    38.8901 CH2           1 RES     
    2783 CH2         29.5763    35.9865    40.0228 CH2           1 RES     
    2784 CH2         29.1864    36.9542    41.1556 CH2           1 RES     
    2785 CH2         28.4990    36.1694    42.2883 CH2           1 RES     
    2786 CH2         28.1091    37.1371    43.4211 CH2           1 RES     
    2787 CH2         27.4217    36.3522    44.5538 CH2           1 RES     
    2788 CH2         27.0318    37.3199    45.6866 CH2           1 RES     
    2789 CH2         26.3444    36.5350    46.8193 CH2           1 RES     
    2790 CH2         25.9545    37.5027    47.9521 CH2           1 RES     
    2791 CH2         25.2671    36.7179    49.0848 CH2           1 RES     
    2792 CH2         24.8772    37.6856    50.2176 CH2           1 RES     
    2793 CH2         24.1899    36.9007    51.3504 CH2           1 RES     
    2794 CH3         23.8176    37.8244    52.4316 CH3           1 RES     
    2795 CH3         38.9401    29.9481    24.3082 CH3           1 RES     
    2796 CH3         39.2207    27.6271    24.5677 CH3           1 RES     
    2797 CH3         40.9270    28.9361    24.1702 CH3           1 RES     
    2798 NL          39.7402    28.8476    24.7484 NL            1 RES     
    2799 CH2         40.0521    29.0454    26.0908 CH2           1 RES     
    2800 CH2         38.6558    28.9361    26.7311 CH2           1 RES     
    2801 OA          38.7681    29.1229    28.2000 OA            1 RES     
    2802 P           39.0031    27.6864    28.8645 P             1 RES     
    2803 OM          37.7172    26.8000    28.5169 OM            1 RES     
    2804 OM          40.3785    27.1225    28.2725 OM            1 RES     
    2805 OA          39.1295    27.8463    30.4514 OA            1 RES     
    2806 CH2         39.3463    26.4971    31.0327 CH2           1 RES     
    2807 CH1         38.8387    26.3905    32.2880 CH1           1 RES     
    2808 OE          37.7201    25.8350    33.0632 OE            1 RES     
    2809 C           37.5322    24.6860    32.1175 C             1 RES     
    2810 O           38.2107    24.4952    31.1094 O             1 RES     
    2811 CH2         36.5998    23.8760    32.7877 CH2           1 RES     
    2812 CH2         36.1047    24.3865    34.1537 CH2           1 RES     
    2813 CH2         35.2478    23.2996    34.8288 CH2           1 RES     
    2814 CH2         34.7527    23.8101    36.1948 CH2           1 RES     
    2815 CH2         33.8957    22.7232    36.8700 CH2           1 RES     
    2816 CH2         33.4007    23.2337    38.2360 CH2           1 RES     
    2817 CH2         32.5437    22.1468    38.9112 CH2           1 RES     
    2818 CH2         32.0487    22.6573    40.2771 CH2           1 RES     
    2819 CH2         31.1917    21.5704    40.9523 CH2           1 RES     
    2820 CH2         30.6967    22.0809    42.3183 CH2           1 RES     
    2821 CH2         29.8397    20.9940    42.9935 CH2           1 RES     
    2822 CH2         29.3446    21.5045    44.3594 CH2           1 RES     
    2823 CH2         28.4877    20.4176    45.0346 CH2           1 RES     
    2824 CH2         27.9926    20.9281    46.4006 CH2           1 RES     
    2825 CH2         27.1356    19.8412    47.0758 CH2           1 RES     
    2826 CH2         26.6406    20.3517    48.4418 CH2           1 RES     
    2827 CH3         25.8226    19.3142    49.0862 CH3           1 RES     
    2828 CH2         38.6569    27.9129    32.1432 CH2           1 RES     
    2829 OE          38.2788    28.3714    33.4816 OE            1 RES     
    2830 C           38.1427    29.8340    33.1778 C             1 RES     
    2831 O           38.3306    30.3361    32.0707 O             1 RES     
    2832 CH2         37.5833    30.3500    34.3590 CH2           1 RES     
    2833 CH2         37.3212    29.3402    35.4918 CH2           1 RES     
    2834 CH2         36.5385    30.0300    36.6245 CH2           1 RES     
    2835 CH2         36.2764    29.0202    37.7573 CH2           1 RES     
    2836 CH2         35.4937    29.7101    38.8901 CH2           1 RES     
    2837 CH2         35.2316    28.7002    40.0228 CH2           1 RES     
    2838 CH2         34.4489    29.3901    41.1556 CH2           1 RES     
    2839 CH2         34.1868    28.3802    42.2883 CH2           1 RES     
    2840 CH2         33.4041    29.0701    43.4211 CH2           1 RES     
    2841 CH2         33.1420    28.0602    44.5538 CH2           1 RES     
    2842 CH2         32.3593    28.7501    45.6866 CH2           1 RES     
    2843 CH2         32.0972    27.7403    46.8193 CH2           1 RES     
    2844 CH2         31.3145    28.4301    47.9521 CH2           1 RES     
    2845 CH2         31.0524    27.4203    49.0848 CH2           1 RES     
    2846 CH2         30.2697    28.1101    50.2176 CH2           1 RES     
    2847 CH2         30.0076    27.1003    51.3504 CH2           1 RES     
    2848 CH3         29.2605    27.7588    52.4316 CH3           1 RES     
    2849 CH3         27.9608    29.9481    24.3082 CH3           1 RES     
    2850 CH3         28.4952    27.6721    24.5677 CH3           1 RES     
    2851 CH3         30.0471    29.1609    24.1702 CH3           1 RES     
    2852 NL          28.8772    28.9424    24.7484 NL            1 RES     
    2853 CH2         29.1655    29.1733    26.0908 CH2           1 RES     
    2854 CH2         27.7897    28.9110    26.7311 CH2           1 RES     
    2855 OA          27.8807    29.1089    28.2000 OA            1 RES     
    2856 P           28.2724    27.7071    28.8645 P             1 RES     
    2857 OM          27.0919    26.6846    28.5169 OM            1 RES     
    2858 OM          29.7015    27.2980    28.2725 OM            1 RES     
    2859 OA          28.3804    27.8799    30.4514 OA            1 RES     
    2860 CH2         28.7444    26.5628    31.0327 CH2           1 RES     
    2861 CH1         28.2516    26.4010    32.2880 CH1           1 RES     
    2862 OE          27.2009    25.7257    33.0632 OE            1 RES     
    2863 C           27.1406    24.5630    32.1175 C             1 RES     
    2864 O           27.8360    24.4480    31.1094 O             1 RES     
    2865 CH2         26.3031    23.6553    32.7877 CH2           1 RES     
    2866 CH2         25.7548    24.1082    34.1537 CH2           1 RES     
    2867 CH2         25.0227    22.9336    34.8288 CH2           1 RES     
    2868 CH2         24.4745    23.3865    36.1948 CH2           1 RES     
    2869 CH2         23.7423    22.2119    36.8700 CH2           1 RES     
    2870 CH2         23.1941    22.6648    38.2360 CH2           1 RES     
    2871 CH2         22.4620    21.4902    38.9112 CH2           1 RES     
    2872 CH2         21.9137    21.9431    40.2771 CH2           1 RES     
    2873 CH2         21.1816    20.7685    40.9523 CH2           1 RES     
    2874 CH2         20.6334    21.2214    42.3183 CH2           1 RES     
    2875 CH2         19.9012    20.0468    42.9935 CH2           1 RES     
    2876 CH2         19.3530    20.4997    44.3594 CH2           1 RES     
    2877 CH2         18.6209    19.3251    45.0346 CH2           1 RES     
    2878 CH2         18.0726    19.7780    46.4006 CH2           1 RES     
    2879 CH2         17.3405    18.6034    47.0758 CH2           1 RES     
    2880 CH2         16.7923    19.0563    48.4418 CH2           1 RES     
    2881 CH3         16.0934    17.9351    49.0862 CH3           1 RES     
    2882 CH2         27.9034    27.8941    32.1432 CH2           1 RES     
    2883 OE          27.4771    28.3082    33.4816 OE            1 RES     
    2884 C           27.1809    29.7470    33.1778 C             1 RES     
    2885 O           27.3123    30.2666    32.0707 O             1 RES     
    2886 CH2         26.5680    30.1983    34.3590 CH2           1 RES     
    2887 CH2         26.4187    29.1657    35.4918 CH2           1 RES     
    2888 CH2         25.5648    29.7652    36.6245 CH2           1 RES     
    2889 CH2         25.4154    28.7327    37.7573 CH2           1 RES     
    2890 CH2         24.5616    29.3322    38.8901 CH2           1 RES     
    2891 CH2         24.4122    28.2996    40.0228 CH2           1 RES     
    2892 CH2         23.5584    28.8992    41.1556 CH2           1 RES     
    2893 CH2         23.4090    27.8666    42.2883 CH2           1 RES     
    2894 CH2         22.5551    28.4661    43.4211 CH2           1 RES     
    2895 CH2         22.4057    27.4336    44.5538 CH2           1 RES     
    2896 CH2         21.5519    28.0331    45.6866 CH2           1 RES     
    2897 CH2         21.4025    27.0005    46.8193 CH2           1 RES     
    2898 CH2         20.5487    27.6001    47.9521 CH2           1 RES     
    2899 CH2         20.3993    26.5675    49.0848 CH2           1 RES     
    2900 CH2         19.5454    27.1670    50.2176 CH2           1 RES     
    2901 CH2         19.3961    26.1345    51.3504 CH2           1 RES     
    2902 CH3         18.5810    26.7067    52.4316 CH3           1 RES     
    2903 CH3          0.5128    13.4792    24.3082 CH3           1 RES     
    2904 CH3         -0.0421    11.2081    24.5677 CH3           1 RES     
    2905 CH3          2.0159    11.8323    24.1702 CH3           1 RES     
    2906 NL           0.8740    12.1675    24.7484 NL            1 RES     
    2907 CH2          1.2356    12.2427    26.0908 CH2           1 RES     
    2908 CH2         -0.1097    12.6323    26.7311 CH2           1 RES     
    2909 OA           0.0611    12.7675    28.2000 OA            1 RES     
    2910 P           -0.2248    11.3403    28.8645 P             1 RES     
    2911 OM          -1.7405    10.9636    28.5169 OM            1 RES     
    2912 OM           0.8638    10.3281    28.2725 OM            1 RES     
    2913 OA          -0.0502    11.4454    30.4514 OA            1 RES     
    2914 CH2         -0.3224    10.1063    31.0327 CH2           1 RES     
    2915 CH1         -0.8351    10.1853    32.2880 CH1           1 RES     
    2916 OE          -2.0777    10.0594    33.0632 OE            1 RES     
    2917 C           -2.6582     9.0501    32.1175 C             1 RES     
    2918 O           -2.0904     8.6326    31.1094 O             1 RES     
    2919 CH2         -3.8161     8.6204    32.7877 CH2           1 RES     
    2920 CH2         -4.0997     9.2726    34.1537 CH2           1 RES     
    2921 CH2         -5.2845     8.5571    34.8288 CH2           1 RES     
    2922 CH2         -5.5681     9.2093    36.1948 CH2           1 RES     
    2923 CH2         -6.7529     8.4938    36.8700 CH2           1 RES     
    2924 CH2         -7.0365     9.1460    38.2360 CH2           1 RES     
    2925 CH2         -8.2213     8.4305    38.9112 CH2           1 RES     
    2926 CH2         -8.5049     9.0827    40.2771 CH2           1 RES     
    2927 CH2         -9.6897     8.3672    40.9523 CH2           1 RES     
    2928 CH2         -9.9733     9.0194    42.3183 CH2           1 RES     
    2929 CH2        -11.1581     8.3039    42.9935 CH2           1 RES     
    2930 CH2        -11.4417     8.9561    44.3594 CH2           1 RES     
    2931 CH2        -12.6265     8.2406    45.0346 CH2           1 RES     
    2932 CH2        -12.9101     8.8928    46.4006 CH2           1 RES     
    2933 CH2        -14.0949     8.1773    47.0758 CH2           1 RES     
    2934 CH2        -14.3785     8.8295    48.4418 CH2           1 RES     
    2935 CH3        -15.5095     8.1466    49.0862 CH3           1 RES     
    2936 CH2         -0.4691    11.6742    32.1432 CH2           1 RES     
    2937 OE          -0.6614    12.2365    33.4816 OE            1 RES     
    2938 C           -0.2737    13.6533    33.1778 C             1 RES     
    2939 O            0.0789    14.0570    32.0707 O             1 RES     
    2940 CH2         -0.6156    14.3333    34.3590 CH2           1 RES     
    2941 CH2         -1.2165    13.4805    35.4918 CH2           1 RES     
    2942 CH2         -1.7061    14.4018    36.6245 CH2           1 RES     
    2943 CH2         -2.3071    13.5490    37.7573 CH2           1 RES     
    2944 CH2         -2.7967    14.4703    38.8901 CH2           1 RES     
    2945 CH2         -3.3976    13.6174    40.0228 CH2           1 RES     
    2946 CH2         -3.8872    14.5387    41.1556 CH2           1 RES     
    2947 CH2         -4.4882    13.6859    42.2883 CH2           1 RES     
    2948 CH2         -4.9778    14.6072    43.4211 CH2           1 RES     
    2949 CH2         -5.5787    13.7544    44.5538 CH2           1 RES     
    2950 CH2         -6.0683    14.6757    45.6866 CH2           1 RES     
    2951 CH2         -6.6693    13.8229    46.8193 CH2           1 RES     
    2952 CH2         -7.1589    14.7442    47.9521 CH2           1 RES     
    2953 CH2         -7.7598    13.8914    49.0848 CH2           1 RES     
    2954 CH2         -8.2494    14.8127    50.2176 CH2           1 RES     
    2955 CH2         -8.8504    13.9599    51.3504 CH2           1 RES     
    2956 CH3         -9.3177    14.8393    52.4316 CH3           1 RES     
    2957 CH3         38.9401     7.9896    24.3082 CH3           1 RES     
    2958 CH3         38.3595     5.7250    24.5677 CH3           1 RES     
    2959 CH3         40.4245     6.3257    24.1702 CH3           1 RES     
    2960 NL          39.2864     6.6739    24.7484 NL            1 RES     
    2961 CH2         39.6489     6.7450    26.0908 CH2           1 RES     
    2962 CH2         38.3080     7.1498    26.7311 CH2           1 RES     
    2963 OA          38.4804     7.2830    28.2000 OA            1 RES     
    2964 P           38.1783     5.8592    28.8645 P             1 RES     
    2965 OM          36.6584     5.4997    28.5169 OM            1 RES     
    2966 OM          39.2553     4.8347    28.2725 OM            1 RES     
    2967 OA          38.3540     5.9623    30.4514 OA            1 RES     
    2968 CH2         38.0666     4.6264    31.0327 CH2           1 RES     
    2969 CH1         37.5549     4.7112    32.2880 CH1           1 RES     
    2970 OE          36.3110     4.5994    33.0632 OE            1 RES     
    2971 C           35.7190     3.5968    32.1175 C             1 RES     
    2972 O           36.2821     3.1729    31.1094 O             1 RES     
    2973 CH2         34.5563     3.1803    32.7877 CH2           1 RES     
    2974 CH2         34.2802     3.8356    34.1537 CH2           1 RES     
    2975 CH2         33.0873     3.1337    34.8288 CH2           1 RES     
    2976 CH2         32.8112     3.7890    36.1948 CH2           1 RES     
    2977 CH2         31.6183     3.0870    36.8700 CH2           1 RES     
    2978 CH2         31.3421     3.7424    38.2360 CH2           1 RES     
    2979 CH2         30.1492     3.0404    38.9112 CH2           1 RES     
    2980 CH2         29.8731     3.6957    40.2771 CH2           1 RES     
    2981 CH2         28.6802     2.9938    40.9523 CH2           1 RES     
    2982 CH2         28.4041     3.6491    42.3183 CH2           1 RES     
    2983 CH2         27.2112     2.9472    42.9935 CH2           1 RES     
    2984 CH2         26.9351     3.6025    44.3594 CH2           1 RES     
    2985 CH2         25.7422     2.9005    45.0346 CH2           1 RES     
    2986 CH2         25.4660     3.5559    46.4006 CH2           1 RES     
    2987 CH2         24.2731     2.8539    47.0758 CH2           1 RES     
    2988 CH2         23.9970     3.5092    48.4418 CH2           1 RES     
    2989 CH3         22.8583     2.8392    49.0862 CH3           1 RES     
    2990 CH2         37.9378     6.1958    32.1432 CH2           1 RES     
    2991 OE          37.7519     6.7603    33.4816 OE            1 RES     
    2992 C           38.1556     8.1726    33.1778 C             1 RES     
    2993 O           38.5128     8.5723    32.0707 O             1 RES     
    2994 CH2         37.8215     8.8564    34.3590 CH2           1 RES     
    2995 CH2         37.2109     8.0105    35.4918 CH2           1 RES     
    2996 CH2         36.7318     8.9373    36.6245 CH2           1 RES     
    2997 CH2         36.1212     8.0913    37.7573 CH2           1 RES     
    2998 CH2         35.6421     9.0181    38.8901 CH2           1 RES     
    2999 CH2         35.0315     8.1722    40.0228 CH2           1 RES     
    3000 CH2         34.5524     9.0990    41.1556 CH2           1 RES     
    3001 CH2         33.9418     8.2531    42.2883 CH2           1 RES     
    3002 CH2         33.4627     9.1799    43.4211 CH2           1 RES     
    3003 CH2         32.8521     8.3339    44.5538 CH2           1 RES     
    3004 CH2         32.3730     9.2607    45.6866 CH2           1 RES     
    3005 CH2         31.7624     8.4148    46.8193 CH2           1 RES     
    3006 CH2         31.2833     9.3416    47.9521 CH2           1 RES     
    3007 CH2         30.6727     8.4957    49.0848 CH2           1 RES     
    3008 CH2         30.1936     9.4225    50.2176 CH2           1 RES     
    3009 CH2         29.5830     8.5765    51.3504 CH2           1 RES     
    3010 CH3         29.1257     9.4612    52.4316 CH3           1 RES     
    3011 CH3         11.4920     2.5000    24.3082 CH3           1 RES     
    3012 CH3         11.8061     0.1833    24.5677 CH3           1 RES     
    3013 CH3         13.4933     1.5168    24.1702 CH3           1 RES     
    3014 NL          12.3079     1.4112    24.7484 NL            1 RES     
    3015 CH2         12.6169     1.6135    26.0908 CH2           1 RES     
    3016 CH2         11.2223     1.4841    26.7311 CH2           1 RES     
    3017 OA          11.3319     1.6724    28.2000 OA            1 RES     
    3018 P           11.5877     0.2395    28.8645 P             1 RES     
    3019 OM          10.3147    -0.6654    28.5169 OM            1 RES     
    3020 OM          12.9710    -0.3045    28.2725 OM            1 RES     
    3021 OA          11.7117     0.4012    30.4514 OA            1 RES     
    3022 CH2         11.9480    -0.9447    31.0327 CH2           1 RES     
    3023 CH1         11.4420    -1.0586    32.2880 CH1           1 RES     
    3024 OE          10.3315    -1.6303    33.0632 OE            1 RES     
    3025 C           10.1602    -2.7819    32.1175 C             1 RES     
    3026 O           10.8414    -2.9629    31.1094 O             1 RES     
    3027 CH2          9.2396    -3.6052    32.7877 CH2           1 RES     
    3028 CH2          8.7372    -3.1019    34.1537 CH2           1 RES     
    3029 CH2          7.8961    -4.2011    34.8288 CH2           1 RES     
    3030 CH2          7.3937    -3.6978    36.1948 CH2           1 RES     
    3031 CH2          6.5525    -4.7970    36.8700 CH2           1 RES     
    3032 CH2          6.0501    -4.2937    38.2360 CH2           1 RES     
    3033 CH2          5.2089    -5.3928    38.9112 CH2           1 RES     
    3034 CH2          4.7066    -4.8895    40.2771 CH2           1 RES     
    3035 CH2          3.8654    -5.9887    40.9523 CH2           1 RES     
    3036 CH2          3.3630    -5.4854    42.3183 CH2           1 RES     
    3037 CH2          2.5218    -6.5846    42.9935 CH2           1 RES     
    3038 CH2          2.0194    -6.0813    44.3594 CH2           1 RES     
    3039 CH2          1.1783    -7.1804    45.0346 CH2           1 RES     
    3040 CH2          0.6759    -6.6771    46.4006 CH2           1 RES     
    3041 CH2         -0.1653    -7.7763    47.0758 CH2           1 RES     
    3042 CH2         -0.6677    -7.2730    48.4418 CH2           1 RES     
    3043 CH3         -1.4706    -8.3222    49.0862 CH3           1 RES     
    3044 CH2         11.2382     0.4609    32.1432 CH2           1 RES     
    3045 OE          10.8536     0.9140    33.4816 OE            1 RES     
    3046 C           10.6963     2.3744    33.1778 C             1 RES     
    3047 O           10.8769     2.8791    32.0707 O             1 RES     
    3048 CH2         10.1295     2.8823    34.3590 CH2           1 RES     
    3049 CH2          9.8820     1.8688    35.4918 CH2           1 RES     
    3050 CH2          9.0895     2.5473    36.6245 CH2           1 RES     
    3051 CH2          8.8419     1.5338    37.7573 CH2           1 RES     
    3052 CH2          8.0494     2.2122    38.8901 CH2           1 RES     
    3053 CH2          7.8019     1.1987    40.0228 CH2           1 RES     
    3054 CH2          7.0093     1.8772    41.1556 CH2           1 RES     
    3055 CH2          6.7618     0.8637    42.2883 CH2           1 RES     
    3056 CH2          5.9693     1.5422    43.4211 CH2           1 RES     
    3057 CH2          5.7217     0.5286    44.5538 CH2           1 RES     
    3058 CH2          4.9292     1.2071    45.6866 CH2           1 RES     
    3059 CH2          4.6817     0.1936    46.8193 CH2           1 RES     
    3060 CH2          3.8891     0.8721    47.9521 CH2           1 RES     
    3061 CH2          3.6416    -0.1414    49.0848 CH2           1 RES     
    3062 CH2          2.8491     0.5370    50.2176 CH2           1 RES     
    3063 CH2          2.6016    -0.4765    51.3504 CH2           1 RES     
    3064 CH3          1.8450     0.1712    52.4316 CH3           1 RES     
    3065 CH3         -2.9864     9.0946    46.4211 CH3           1 RES     
    3066 CH2         -3.2268     9.0280    44.9724 CH2           1 RES     
    3067 CH2         -1.8809     9.0724    44.2253 CH2           1 RES     
    3068 CH2         -2.1328     9.0027    42.7077 CH2           1 RES     
    3069 CH2         -0.7869     9.0471    41.9606 CH2           1 RES     
    3070 CH2         -1.0388     8.9773    40.4429 CH2           1 RES     
    3071 CH2          0.3072     9.0217    39.6959 CH2           1 RES     
    3072 CH2          0.0553     8.9519    38.1782 CH2           1 RES     
    3073 CH2          1.4012     8.9963    37.4312 CH2           1 RES     
    3074 CH2          1.1493     8.9266    35.9135 CH2           1 RES     
    3075 CH2          2.4952     8.9710    35.1664 CH2           1 RES     
    3076 CH2          2.2433     8.9012    33.6488 CH2           1 RES     
    3077 CH2          3.5893     8.9456    32.9017 CH2           1 RES     
    3078 CH2          3.3374     8.8759    31.3841 CH2           1 RES     
    3079 CH2          4.6833     8.9203    30.6370 CH2           1 RES     
    3080 CH2          4.4314     8.8505    29.1193 CH2           1 RES     
    3081 OA           5.6943     8.8921    28.4184 OA            1 RES     
    3082 H            6.0024     7.9896    28.3082 H             1 RES     
    3083 CH3         -2.7714    32.1929    46.4211 CH3           1 RES     
    3084 CH2         -3.0184    32.1576    44.9724 CH2           1 RES     
    3085 CH2         -1.6779    32.0296    44.2253 CH2           1 RES     
    3086 CH2         -1.9366    31.9926    42.7077 CH2           1 RES     
    3087 CH2         -0.5960    31.8646    41.9606 CH2           1 RES     
    3088 CH2         -0.8548    31.8276    40.4429 CH2           1 RES     
    3089 CH2          0.4858    31.6996    39.6959 CH2           1 RES     
    3090 CH2          0.2270    31.6626    38.1782 CH2           1 RES     
    3091 CH2          1.5676    31.5346    37.4312 CH2           1 RES     
    3092 CH2          1.3089    31.4976    35.9135 CH2           1 RES     
    3093 CH2          2.6494    31.3696    35.1664 CH2           1 RES     
    3094 CH2          2.3907    31.3326    33.6488 CH2           1 RES     
    3095 CH2          3.7312    31.2047    32.9017 CH2           1 RES     
    3096 CH2          3.4725    31.1677    31.3841 CH2           1 RES     
    3097 CH2          4.8131    31.0397    30.6370 CH2           1 RES     
    3098 CH2          4.5543    31.0027    29.1193 CH2           1 RES     
    3099 OA           5.8122    30.8826    28.4184 OA            1 RES     
    3100 H            6.0024    29.9481    28.3082 H             1 RES     
    3101 CH3         24.9208    32.9916    46.4211 CH3           1 RES     
    3102 CH2         24.6716    32.9792    44.9724 CH2           1 RES     
    3103 CH2         25.9946    32.7282    44.2253 CH2           1 RES     
    3104 CH2         25.7336    32.7152    42.7077 CH2           1 RES     
    3105 CH2         27.0567    32.4643    41.9606 CH2           1 RES     
    3106 CH2         26.7956    32.4513    40.4429 CH2           1 RES     
    3107 CH2         28.1187    32.2004    39.6959 CH2           1 RES     
    3108 CH2         27.8576    32.1874    38.1782 CH2           1 RES     
    3109 CH2         29.1807    31.9364    37.4312 CH2           1 RES     
    3110 CH2         28.9196    31.9234    35.9135 CH2           1 RES     
    3111 CH2         30.2427    31.6725    35.1664 CH2           1 RES     
    3112 CH2         29.9817    31.6595    33.6488 CH2           1 RES     
    3113 CH2         31.3047    31.4085    32.9017 CH2           1 RES     
    3114 CH2         31.0437    31.3955    31.3841 CH2           1 RES     
    3115 CH2         32.3668    31.1446    30.6370 CH2           1 RES     
    3116 CH2         32.1057    31.1316    29.1193 CH2           1 RES     
    3117 OA          33.3472    30.8961    28.4184 OA            1 RES     
    3118 H           33.4505    29.9481    28.3082 H             1 RES     
    3119 CH3          8.0177     6.6987    46.4211 CH3           1 RES     
    3120 CH2          7.8031     6.5714    44.9724 CH2           1 RES     
    3121 CH2          9.0903     6.9672    44.2253 CH2           1 RES     
    3122 CH2          8.8655     6.8339    42.7077 CH2           1 RES     
    3123 CH2         10.1527     7.2297    41.9606 CH2           1 RES     
    3124 CH2          9.9279     7.0963    40.4429 CH2           1 RES     
    3125 CH2         11.2151     7.4921    39.6959 CH2           1 RES     
    3126 CH2         10.9903     7.3587    38.1782 CH2           1 RES     
    3127 CH2         12.2775     7.7545    37.4312 CH2           1 RES     
    3128 CH2         12.0527     7.6211    35.9135 CH2           1 RES     
    3129 CH2         13.3399     8.0169    35.1664 CH2           1 RES     
    3130 CH2         13.1151     7.8835    33.6488 CH2           1 RES     
    3131 CH2         14.4023     8.2793    32.9017 CH2           1 RES     
    3132 CH2         14.1775     8.1460    31.3841 CH2           1 RES     
    3133 CH2         15.4646     8.5418    30.6370 CH2           1 RES     
    3134 CH2         15.2399     8.4084    29.1193 CH2           1 RES     
    3135 OA          16.4476     8.7798    28.4184 OA            1 RES     
    3136 H           16.9816     7.9896    28.3082 H             1 RES     
    3137 CH3         13.8380    21.7225    46.4211 CH3           1 RES     
    3138 CH2         13.6471    21.5619    44.9724 CH2           1 RES     
    3139 CH2         14.8524    22.1624    44.2253 CH2           1 RES     
    3140 CH2         14.6524    21.9941    42.7077 CH2           1 RES     
    3141 CH2         15.8578    22.5946    41.9606 CH2           1 RES     
    3142 CH2         15.6577    22.4263    40.4429 CH2           1 RES     
    3143 CH2         16.8631    23.0268    39.6959 CH2           1 RES     
    3144 CH2         16.6631    22.8586    38.1782 CH2           1 RES     
    3145 CH2         17.8685    23.4590    37.4312 CH2           1 RES     
    3146 CH2         17.6684    23.2908    35.9135 CH2           1 RES     
    3147 CH2         18.8738    23.8913    35.1664 CH2           1 RES     
    3148 CH2         18.6738    23.7230    33.6488 CH2           1 RES     
    3149 CH2         19.8792    24.3235    32.9017 CH2           1 RES     
    3150 CH2         19.6791    24.1552    31.3841 CH2           1 RES     
    3151 CH2         20.8845    24.7557    30.6370 CH2           1 RES     
    3152 CH2         20.6845    24.5875    29.1193 CH2           1 RES     
    3153 OA          21.8155    25.1509    28.4184 OA            1 RES     
    3154 H           22.4712    24.4585    28.3082 H             1 RES     
    3155 CH3         -2.8435    37.3792    46.4211 CH3           1 RES     
    3156 CH2         -3.0891    37.3354    44.9724 CH2           1 RES     
    3157 CH2         -1.7449    37.2536    44.2253 CH2           1 RES     
    3158 CH2         -2.0023    37.2077    42.7077 CH2           1 RES     
    3159 CH2         -0.6581    37.1260    41.9606 CH2           1 RES     
    3160 CH2         -0.9154    37.0801    40.4429 CH2           1 RES     
    3161 CH2          0.4288    36.9983    39.6959 CH2           1 RES     
    3162 CH2          0.1714    36.9524    38.1782 CH2           1 RES     
    3163 CH2          1.5156    36.8707    37.4312 CH2           1 RES     
    3164 CH2          1.2583    36.8248    35.9135 CH2           1 RES     
    3165 CH2          2.6025    36.7430    35.1664 CH2           1 RES     
    3166 CH2          2.3452    36.6971    33.6488 CH2           1 RES     
    3167 CH2          3.6893    36.6154    32.9017 CH2           1 RES     
    3168 CH2          3.4320    36.5695    31.3841 CH2           1 RES     
    3169 CH2          4.7762    36.4877    30.6370 CH2           1 RES     
    3170 CH2          4.5189    36.4418    29.1193 CH2           1 RES     
    3171 OA           5.7801    36.3651    28.4184 OA            1 RES     
    3172 H            6.0024    35.4377    28.3082 H             1 RES     
    3173 CH3         18.9081    18.7110    46.4211 CH3           1 RES     
    3174 CH2         18.6804    18.6090    44.9724 CH2           1 RES     
    3175 CH2         20.0044    18.8551    44.2253 CH2           1 RES     
    3176 CH2         19.7658    18.7483    42.7077 CH2           1 RES     
    3177 CH2         21.0898    18.9944    41.9606 CH2           1 RES     
    3178 CH2         20.8512    18.8876    40.4429 CH2           1 RES     
    3179 CH2         22.1752    19.1337    39.6959 CH2           1 RES     
    3180 CH2         21.9367    19.0269    38.1782 CH2           1 RES     
    3181 CH2         23.2607    19.2729    37.4312 CH2           1 RES     
    3182 CH2         23.0221    19.1661    35.9135 CH2           1 RES     
    3183 CH2         24.3461    19.4122    35.1664 CH2           1 RES     
    3184 CH2         24.1075    19.3054    33.6488 CH2           1 RES     
    3185 CH2         25.4315    19.5515    32.9017 CH2           1 RES     
    3186 CH2         25.1929    19.4447    31.3841 CH2           1 RES     
    3187 CH2         26.5169    19.6908    30.6370 CH2           1 RES     
    3188 CH2         26.2784    19.5840    29.1193 CH2           1 RES     
    3189 OA          27.5207    19.8149    28.4184 OA            1 RES     
    3190 H           27.9608    18.9689    28.3082 H             1 RES     
    3191 CH3         -1.8298    29.0055    46.4211 CH3           1 RES     
    3192 CH2         -2.0771    29.0387    44.9724 CH2           1 RES     
    3193 CH2         -0.8219    28.5509    44.2253 CH2           1 RES     
    3194 CH2         -1.0809    28.5857    42.7077 CH2           1 RES     
    3195 CH2          0.1742    28.0978    41.9606 CH2           1 RES     
    3196 CH2         -0.0848    28.1326    40.4429 CH2           1 RES     
    3197 CH2          1.1704    27.6447    39.6959 CH2           1 RES     
    3198 CH2          0.9113    27.6795    38.1782 CH2           1 RES     
    3199 CH2          2.1665    27.1917    37.4312 CH2           1 RES     
    3200 CH2          1.9074    27.2265    35.9135 CH2           1 RES     
    3201 CH2          3.1626    26.7386    35.1664 CH2           1 RES     
    3202 CH2          2.9036    26.7734    33.6488 CH2           1 RES     
    3203 CH2          4.1588    26.2855    32.9017 CH2           1 RES     
    3204 CH2          3.8997    26.3203    31.3841 CH2           1 RES     
    3205 CH2          5.1549    25.8324    30.6370 CH2           1 RES     
    3206 CH2          4.8958    25.8672    29.1193 CH2           1 RES     
    3207 OA           6.0736    25.4095    28.4184 OA            1 RES     
    3208 H            6.0024    24.4585    28.3082 H             1 RES     
    3209 CH3          2.8597    16.2183    46.4211 CH3           1 RES     
    3210 CH2          2.6111    16.1970    44.9724 CH2           1 RES     
    3211 CH2          3.9423    15.9932    44.2253 CH2           1 RES     
    3212 CH2          3.6818    15.9709    42.7077 CH2           1 RES     
    3213 CH2          5.0130    15.7671    41.9606 CH2           1 RES     
    3214 CH2          4.7525    15.7448    40.4429 CH2           1 RES     
    3215 CH2          6.0837    15.5410    39.6959 CH2           1 RES     
    3216 CH2          5.8233    15.5187    38.1782 CH2           1 RES     
    3217 CH2          7.1544    15.3149    37.4312 CH2           1 RES     
    3218 CH2          6.8940    15.2926    35.9135 CH2           1 RES     
    3219 CH2          8.2251    15.0888    35.1664 CH2           1 RES     
    3220 CH2          7.9647    15.0665    33.6488 CH2           1 RES     
    3221 CH2          9.2958    14.8627    32.9017 CH2           1 RES     
    3222 CH2          9.0354    14.8404    31.3841 CH2           1 RES     
    3223 CH2         10.3665    14.6366    30.6370 CH2           1 RES     
    3224 CH2         10.1061    14.6143    29.1193 CH2           1 RES     
    3225 OA          11.3551    14.4230    28.4184 OA            1 RES     
    3226 H           11.4920    13.4792    28.3082 H             1 RES     
    3227 CH3         -8.4621    31.1611    46.4211 CH3           1 RES     
    3228 CH2         -8.7033    31.0974    44.9724 CH2           1 RES     
    3229 CH2         -7.3569    31.1256    44.2253 CH2           1 RES     
    3230 CH2         -7.6096    31.0589    42.7077 CH2           1 RES     
    3231 CH2         -6.2633    31.0871    41.9606 CH2           1 RES     
    3232 CH2         -6.5160    31.0204    40.4429 CH2           1 RES     
    3233 CH2         -5.1696    31.0486    39.6959 CH2           1 RES     
    3234 CH2         -5.4223    30.9819    38.1782 CH2           1 RES     
    3235 CH2         -4.0760    31.0101    37.4312 CH2           1 RES     
    3236 CH2         -4.3287    30.9433    35.9135 CH2           1 RES     
    3237 CH2         -2.9823    30.9716    35.1664 CH2           1 RES     
    3238 CH2         -3.2350    30.9048    33.6488 CH2           1 RES     
    3239 CH2         -1.8887    30.9330    32.9017 CH2           1 RES     
    3240 CH2         -2.1414    30.8663    31.3841 CH2           1 RES     
    3241 CH2         -0.7950    30.8945    30.6370 CH2           1 RES     
    3242 CH2         -1.0478    30.8278    29.1193 CH2           1 RES     
    3243 OA           0.2156    30.8543    28.4184 OA            1 RES     
    3244 H            0.5128    29.9481    28.3082 H             1 RES     
    3245 CH3         24.8975    10.9670    46.4211 CH3           1 RES     
    3246 CH2         24.6484    10.9527    44.9724 CH2           1 RES     
    3247 CH2         25.9734    10.7120    44.2253 CH2           1 RES     
    3248 CH2         25.7124    10.6970    42.7077 CH2           1 RES     
    3249 CH2         27.0374    10.4563    41.9606 CH2           1 RES     
    3250 CH2         26.7764    10.4413    40.4429 CH2           1 RES     
    3251 CH2         28.1014    10.2006    39.6959 CH2           1 RES     
    3252 CH2         27.8405    10.1855    38.1782 CH2           1 RES     
    3253 CH2         29.1654     9.9448    37.4312 CH2           1 RES     
    3254 CH2         28.9045     9.9298    35.9135 CH2           1 RES     
    3255 CH2         30.2295     9.6891    35.1664 CH2           1 RES     
    3256 CH2         29.9685     9.6741    33.6488 CH2           1 RES     
    3257 CH2         31.2935     9.4334    32.9017 CH2           1 RES     
    3258 CH2         31.0326     9.4184    31.3841 CH2           1 RES     
    3259 CH2         32.3575     9.1777    30.6370 CH2           1 RES     
    3260 CH2         32.0966     9.1627    29.1193 CH2           1 RES     
    3261 OA          33.3398     8.9368    28.4184 OA            1 RES     
    3262 H           33.4505     7.9896    28.3082 H             1 RES     
    3263 CH3         13.7776    10.9416    46.4211 CH3           1 RES     
    3264 CH2         13.5830    10.7854    44.9724 CH2           1 RES     
    3265 CH2         14.8018    11.3582    44.2253 CH2           1 RES     
    3266 CH2         14.5980    11.1945    42.7077 CH2           1 RES     
    3267 CH2         15.8168    11.7673    41.9606 CH2           1 RES     
    3268 CH2         15.6130    11.6036    40.4429 CH2           1 RES     
    3269 CH2         16.8318    12.1764    39.6959 CH2           1 RES     
    3270 CH2         16.6280    12.0127    38.1782 CH2           1 RES     
    3271 CH2         17.8468    12.5855    37.4312 CH2           1 RES     
    3272 CH2         17.6430    12.4218    35.9135 CH2           1 RES     
    3273 CH2         18.8618    12.9946    35.1664 CH2           1 RES     
    3274 CH2         18.6580    12.8309    33.6488 CH2           1 RES     
    3275 CH2         19.8767    13.4037    32.9017 CH2           1 RES     
    3276 CH2         19.6729    13.2400    31.3841 CH2           1 RES     
    3277 CH2         20.8917    13.8128    30.6370 CH2           1 RES     
    3278 CH2         20.6879    13.6491    29.1193 CH2           1 RES     
    3279 OA          21.8315    14.1865    28.4184 OA            1 RES     
    3280 H           22.4712    13.4792    28.3082 H             1 RES     
    3281 CH3          8.5182    22.1922    46.4211 CH3           1 RES     
    3282 CH2          8.2689    22.1851    44.9724 CH2           1 RES     
    3283 CH2          9.5863    21.9062    44.2253 CH2           1 RES     
    3284 CH2          9.3250    21.8987    42.7077 CH2           1 RES     
    3285 CH2         10.6425    21.6199    41.9606 CH2           1 RES     
    3286 CH2         10.3812    21.6124    40.4429 CH2           1 RES     
    3287 CH2         11.6987    21.3335    39.6959 CH2           1 RES     
    3288 CH2         11.4374    21.3260    38.1782 CH2           1 RES     
    3289 CH2         12.7549    21.0471    37.4312 CH2           1 RES     
    3290 CH2         12.4936    21.0397    35.9135 CH2           1 RES     
    3291 CH2         13.8111    20.7608    35.1664 CH2           1 RES     
    3292 CH2         13.5498    20.7533    33.6488 CH2           1 RES     
    3293 CH2         14.8673    20.4744    32.9017 CH2           1 RES     
    3294 CH2         14.6060    20.4669    31.3841 CH2           1 RES     
    3295 CH2         15.9235    20.1880    30.6370 CH2           1 RES     
    3296 CH2         15.6622    20.1806    29.1193 CH2           1 RES     
    3297 OA          16.8984    19.9189    28.4184 OA            1 RES     
    3298 H           16.9816    18.9689    28.3082 H             1 RES     
    3299 CH3          8.6723    17.0812    46.4211 CH3           1 RES     
    3300 CH2          8.4228    17.0853    44.9724 CH2           1 RES     
    3301 CH2          9.7264    16.7473    44.2253 CH2           1 RES     
    3302 CH2          9.4650    16.7516    42.7077 CH2           1 RES     
    3303 CH2         10.7686    16.4136    41.9606 CH2           1 RES     
    3304 CH2         10.5072    16.4179    40.4429 CH2           1 RES     
    3305 CH2         11.8108    16.0798    39.6959 CH2           1 RES     
    3306 CH2         11.5494    16.0842    38.1782 CH2           1 RES     
    3307 CH2         12.8530    15.7461    37.4312 CH2           1 RES     
    3308 CH2         12.5916    15.7504    35.9135 CH2           1 RES     
    3309 CH2         13.8952    15.4124    35.1664 CH2           1 RES     
    3310 CH2         13.6338    15.4167    33.6488 CH2           1 RES     
    3311 CH2         14.9374    15.0787    32.9017 CH2           1 RES     
    3312 CH2         14.6760    15.0830    31.3841 CH2           1 RES     
    3313 CH2         15.9796    14.7449    30.6370 CH2           1 RES     
    3314 CH2         15.7182    14.7492    29.1193 CH2           1 RES     
    3315 OA          16.9414    14.4320    28.4184 OA            1 RES     
    3316 H           16.9816    13.4792    28.3082 H             1 RES     
    3317 CH3          2.5733    26.0321    46.4211 CH3           1 RES     
    3318 CH2          2.3297    25.9781    44.9724 CH2           1 RES     
    3319 CH2          3.6761    25.9521    44.2253 CH2           1 RES     
    3320 CH2          3.4209    25.8956    42.7077 CH2           1 RES     
    3321 CH2          4.7673    25.8695    41.9606 CH2           1 RES     
    3322 CH2          4.5121    25.8130    40.4429 CH2           1 RES     
    3323 CH2          5.8586    25.7870    39.6959 CH2           1 RES     
    3324 CH2          5.6034    25.7305    38.1782 CH2           1 RES     
    3325 CH2          6.9498    25.7044    37.4312 CH2           1 RES     
    3326 CH2          6.6946    25.6480    35.9135 CH2           1 RES     
    3327 CH2          8.0410    25.6219    35.1664 CH2           1 RES     
    3328 CH2          7.7858    25.5654    33.6488 CH2           1 RES     
    3329 CH2          9.1322    25.5394    32.9017 CH2           1 RES     
    3330 CH2          8.8770    25.4829    31.3841 CH2           1 RES     
    3331 CH2         10.2234    25.4568    30.6370 CH2           1 RES     
    3332 CH2          9.9682    25.4003    29.1193 CH2           1 RES     
    3333 OA          11.2315    25.3759    28.4184 OA            1 RES     
    3334 H           11.4920    24.4585    28.3082 H             1 RES     
    3335 CH3          2.7473    43.2831    46.4211 CH3           1 RES     
    3336 CH2          2.4999    43.2509    44.9724 CH2           1 RES     
    3337 CH2          3.8387    43.1059    44.2253 CH2           1 RES     
    3338 CH2          3.5796    43.0722    42.7077 CH2           1 RES     
    3339 CH2          4.9184    42.9272    41.9606 CH2           1 RES     
    3340 CH2          4.6592    42.8935    40.4429 CH2           1 RES     
    3341 CH2          5.9980    42.7486    39.6959 CH2           1 RES     
    3342 CH2          5.7388    42.7149    38.1782 CH2           1 RES     
    3343 CH2          7.0777    42.5699    37.4312 CH2           1 RES     
    3344 CH2          6.8185    42.5362    35.9135 CH2           1 RES     
    3345 CH2          8.1573    42.3912    35.1664 CH2           1 RES     
    3346 CH2          7.8981    42.3575    33.6488 CH2           1 RES     
    3347 CH2          9.2370    42.2126    32.9017 CH2           1 RES     
    3348 CH2          8.9778    42.1788    31.3841 CH2           1 RES     
    3349 CH2         10.3166    42.0339    30.6370 CH2           1 RES     
    3350 CH2         10.0574    42.0002    29.1193 CH2           1 RES     
    3351 OA          11.3136    41.8642    28.4184 OA            1 RES     
    3352 H           11.4920    40.9273    28.3082 H             1 RES     
    3353 CH3         19.6903     6.1901    46.4211 CH3           1 RES     
    3354 CH2         19.4409     6.1969    44.9724 CH2           1 RES     
    3355 CH2         20.7408     5.8450    44.2253 CH2           1 RES     
    3356 CH2         20.4795     5.8521    42.7077 CH2           1 RES     
    3357 CH2         21.7794     5.5002    41.9606 CH2           1 RES     
    3358 CH2         21.5181     5.5073    40.4429 CH2           1 RES     
    3359 CH2         22.8179     5.1554    39.6959 CH2           1 RES     
    3360 CH2         22.5567     5.1625    38.1782 CH2           1 RES     
    3361 CH2         23.8565     4.8106    37.4312 CH2           1 RES     
    3362 CH2         23.5953     4.8177    35.9135 CH2           1 RES     
    3363 CH2         24.8951     4.4658    35.1664 CH2           1 RES     
    3364 CH2         24.6339     4.4729    33.6488 CH2           1 RES     
    3365 CH2         25.9337     4.1211    32.9017 CH2           1 RES     
    3366 CH2         25.6724     4.1282    31.3841 CH2           1 RES     
    3367 CH2         26.9723     3.7763    30.6370 CH2           1 RES     
    3368 CH2         26.7110     3.7834    29.1193 CH2           1 RES     
    3369 OA          27.9307     3.4532    28.4184 OA            1 RES     
    3370 H           27.9608     2.5000    28.3082 H             1 RES     
    3371 CH3         -7.9164    22.2808    46.4211 CH3           1 RES     
    3372 CH2         -8.1658    22.2763    44.9724 CH2           1 RES     
    3373 CH2         -6.8513    21.9836    44.2253 CH2           1 RES     
    3374 CH2         -7.1127    21.9788    42.7077 CH2           1 RES     
    3375 CH2         -5.7982    21.6862    41.9606 CH2           1 RES     
    3376 CH2         -6.0595    21.6814    40.4429 CH2           1 RES     
    3377 CH2         -4.7451    21.3887    39.6959 CH2           1 RES     
    3378 CH2         -5.0064    21.3840    38.1782 CH2           1 RES     
    3379 CH2         -3.6919    21.0913    37.4312 CH2           1 RES     
    3380 CH2         -3.9533    21.0866    35.9135 CH2           1 RES     
    3381 CH2         -2.6388    20.7939    35.1664 CH2           1 RES     
    3382 CH2         -2.9001    20.7892    33.6488 CH2           1 RES     
    3383 CH2         -1.5857    20.4965    32.9017 CH2           1 RES     
    3384 CH2         -1.8470    20.4917    31.3841 CH2           1 RES     
    3385 CH2         -0.5325    20.1991    30.6370 CH2           1 RES     
    3386 CH2         -0.7939    20.1943    29.1193 CH2           1 RES     
    3387 OA           0.4395    19.9197    28.4184 OA            1 RES     
    3388 H            0.5128    18.9689    28.3082 H             1 RES     
    3389 CH3         -8.3993    42.5381    46.4211 CH3           1 RES     
    3390 CH2         -8.6431    42.4852    44.9724 CH2           1 RES     
    3391 CH2         -7.2968    42.4536    44.2253 CH2           1 RES     
    3392 CH2         -7.5522    42.3981    42.7077 CH2           1 RES     
    3393 CH2         -6.2059    42.3665    41.9606 CH2           1 RES     
    3394 CH2         -6.4614    42.3110    40.4429 CH2           1 RES     
    3395 CH2         -5.1151    42.2794    39.6959 CH2           1 RES     
    3396 CH2         -5.3705    42.2239    38.1782 CH2           1 RES     
    3397 CH2         -4.0242    42.1923    37.4312 CH2           1 RES     
    3398 CH2         -4.2797    42.1368    35.9135 CH2           1 RES     
    3399 CH2         -2.9334    42.1052    35.1664 CH2           1 RES     
    3400 CH2         -3.1888    42.0497    33.6488 CH2           1 RES     
    3401 CH2         -1.8425    42.0181    32.9017 CH2           1 RES     
    3402 CH2         -2.0980    41.9626    31.3841 CH2           1 RES     
    3403 CH2         -0.7517    41.9310    30.6370 CH2           1 RES     
    3404 CH2         -1.0071    41.8755    29.1193 CH2           1 RES     
    3405 OA           0.2561    41.8458    28.4184 OA            1 RES     
    3406 H            0.5128    40.9273    28.3082 H             1 RES     
    3407 CH3          7.9470    23.8301    46.4211 CH3           1 RES     
    3408 CH2          7.7237    23.7189    44.9724 CH2           1 RES     
    3409 CH2          9.0365    24.0190    44.2253 CH2           1 RES     
    3410 CH2          8.8025    23.9025    42.7077 CH2           1 RES     
    3411 CH2         10.1153    24.2026    41.9606 CH2           1 RES     
    3412 CH2          9.8813    24.0861    40.4429 CH2           1 RES     
    3413 CH2         11.1941    24.3862    39.6959 CH2           1 RES     
    3414 CH2         10.9601    24.2697    38.1782 CH2           1 RES     
    3415 CH2         12.2729    24.5698    37.4312 CH2           1 RES     
    3416 CH2         12.0389    24.4534    35.9135 CH2           1 RES     
    3417 CH2         13.3517    24.7534    35.1664 CH2           1 RES     
    3418 CH2         13.1177    24.6370    33.6488 CH2           1 RES     
    3419 CH2         14.4305    24.9371    32.9017 CH2           1 RES     
    3420 CH2         14.1965    24.8206    31.3841 CH2           1 RES     
    3421 CH2         15.5093    25.1207    30.6370 CH2           1 RES     
    3422 CH2         15.2754    25.0042    29.1193 CH2           1 RES     
    3423 OA          16.5072    25.2857    28.4184 OA            1 RES     
    3424 H           16.9816    24.4585    28.3082 H             1 RES     
    3425 CH3         -2.0783     6.5892    46.4211 CH3           1 RES     
    3426 CH2         -2.3271     6.6082    44.9724 CH2           1 RES     
    3427 CH2         -1.0459     6.1933    44.2253 CH2           1 RES     
    3428 CH2         -1.3065     6.2131    42.7077 CH2           1 RES     
    3429 CH2         -0.0254     5.7982    41.9606 CH2           1 RES     
    3430 CH2         -0.2860     5.8181    40.4429 CH2           1 RES     
    3431 CH2          0.9952     5.4032    39.6959 CH2           1 RES     
    3432 CH2          0.7345     5.4230    38.1782 CH2           1 RES     
    3433 CH2          2.0157     5.0081    37.4312 CH2           1 RES     
    3434 CH2          1.7551     5.0280    35.9135 CH2           1 RES     
    3435 CH2          3.0362     4.6131    35.1664 CH2           1 RES     
    3436 CH2          2.7756     4.6329    33.6488 CH2           1 RES     
    3437 CH2          4.0568     4.2180    32.9017 CH2           1 RES     
    3438 CH2          3.7961     4.2379    31.3841 CH2           1 RES     
    3439 CH2          5.0773     3.8230    30.6370 CH2           1 RES     
    3440 CH2          4.8167     3.8428    29.1193 CH2           1 RES     
    3441 OA           6.0188     3.4535    28.4184 OA            1 RES     
    3442 H            6.0024     2.5000    28.3082 H             1 RES     
    3443 CH3         30.3358     2.1408    46.1979 CH3           1 RES     
    3444 CH2         30.8990     1.3194    45.1167 CH2           1 RES     
    3445 CH2         31.4004     2.2344    43.9839 CH2           1 RES     
    3446 CH2         31.9904     1.3739    42.8512 CH2           1 RES     
    3447 CH2         32.4917     2.2889    41.7184 CH2           1 RES     
    3448 CH2         33.0817     1.4284    40.5857 CH2           1 RES     
    3449 CH2         33.5830     2.3434    39.4529 CH2           1 RES     
    3450 CH2         34.1730     1.4829    38.3201 CH2           1 RES     
    3451 CH2         34.6744     2.3979    37.1874 CH2           1 RES     
    3452 CH2         35.2644     1.5374    36.0546 CH2           1 RES     
    3453 CH2         35.7657     2.4524    34.9219 CH2           1 RES     
    3454 CH2         36.3557     1.5919    33.7891 CH2           1 RES     
    3455 CH2         36.8571     2.5069    32.6564 CH2           1 RES     
    3456 CH2         37.4470     1.6464    31.5236 CH2           1 RES     
    3457 CH2         37.9484     2.5613    30.3909 CH2           1 RES     
    3458 O           38.5432     0.5403    29.3269 O             1 RES     
    3459 C           38.4902     1.7692    29.3309 C             1 RES     
    3460 OA          38.9401     2.5000    28.3082 OA            1 RES     
    3461 H           39.2786     1.8991    27.6405 H             1 RES     
    3462 CH3         31.0828    20.9335    46.1979 CH3           1 RES     
    3463 CH2         31.9105    20.3796    45.1167 CH2           1 RES     
    3464 CH2         32.0367    21.4152    43.9839 CH2           1 RES     
    3465 CH2         32.9038    20.8350    42.8512 CH2           1 RES     
    3466 CH2         33.0300    21.8706    41.7184 CH2           1 RES     
    3467 CH2         33.8970    21.2904    40.5857 CH2           1 RES     
    3468 CH2         34.0233    22.3260    39.4529 CH2           1 RES     
    3469 CH2         34.8903    21.7458    38.3201 CH2           1 RES     
    3470 CH2         35.0165    22.7814    37.1874 CH2           1 RES     
    3471 CH2         35.8836    22.2012    36.0546 CH2           1 RES     
    3472 CH2         36.0098    23.2368    34.9219 CH2           1 RES     
    3473 CH2         36.8769    22.6566    33.7891 CH2           1 RES     
    3474 CH2         37.0031    23.6922    32.6564 CH2           1 RES     
    3475 CH2         37.8702    23.1120    31.5236 CH2           1 RES     
    3476 CH2         37.9964    24.1476    30.3909 CH2           1 RES     
    3477 O           39.2984    22.4914    29.3269 O             1 RES     
    3478 C           38.7934    23.6129    29.3309 C             1 RES     
    3479 OA          38.9401    24.4585    28.3082 OA            1 RES     
    3480 H           39.4774    24.0260    27.6405 H             1 RES     
    3481 CH3         30.8185    21.8328    46.1979 CH3           1 RES     
    3482 CH2         31.0362    20.8610    45.1167 CH2           1 RES     
    3483 CH2         31.8416    21.5241    43.9839 CH2           1 RES     
    3484 CH2         32.0696    20.5061    42.8512 CH2           1 RES     
    3485 CH2         32.8750    21.1692    41.7184 CH2           1 RES     
    3486 CH2         33.1030    20.1511    40.5857 CH2           1 RES     
    3487 CH2         33.9085    20.8142    39.4529 CH2           1 RES     
    3488 CH2         34.1365    19.7961    38.3201 CH2           1 RES     
    3489 CH2         34.9419    20.4592    37.1874 CH2           1 RES     
    3490 CH2         35.1699    19.4412    36.0546 CH2           1 RES     
    3491 CH2         35.9753    20.1043    34.9219 CH2           1 RES     
    3492 CH2         36.2033    19.0862    33.7891 CH2           1 RES     
    3493 CH2         37.0088    19.7493    32.6564 CH2           1 RES     
    3494 CH2         37.2368    18.7312    31.5236 CH2           1 RES     
    3495 CH2         38.0422    19.3943    30.3909 CH2           1 RES     
    3496 O           37.8434    17.2970    29.3269 O             1 RES     
    3497 C           38.2509    18.4575    29.3309 C             1 RES     
    3498 OA          38.9401    18.9689    28.3082 OA            1 RES     
    3499 H           39.0311    18.2852    27.6405 H             1 RES     
    3500 CH3         -2.5100    14.7836    46.1979 CH3           1 RES     
    3501 CH2         -2.1155    13.8692    45.1167 CH2           1 RES     
    3502 CH2         -1.4474    14.6705    43.9839 CH2           1 RES     
    3503 CH2         -1.0341    13.7125    42.8512 CH2           1 RES     
    3504 CH2         -0.3660    14.5138    41.7184 CH2           1 RES     
    3505 CH2          0.0473    13.5558    40.5857 CH2           1 RES     
    3506 CH2          0.7154    14.3571    39.4529 CH2           1 RES     
    3507 CH2          1.1287    13.3991    38.3201 CH2           1 RES     
    3508 CH2          1.7968    14.2004    37.1874 CH2           1 RES     
    3509 CH2          2.2101    13.2425    36.0546 CH2           1 RES     
    3510 CH2          2.8782    14.0437    34.9219 CH2           1 RES     
    3511 CH2          3.2915    13.0858    33.7891 CH2           1 RES     
    3512 CH2          3.9596    13.8871    32.6564 CH2           1 RES     
    3513 CH2          4.3729    12.9291    31.5236 CH2           1 RES     
    3514 CH2          5.0411    13.7304    30.3909 CH2           1 RES     
    3515 O            5.2356    11.6327    29.3269 O             1 RES     
    3516 C            5.4202    12.8487    29.3309 C             1 RES     
    3517 OA           6.0024    13.4792    28.3082 OA            1 RES     
    3518 H            6.2189    12.8244    27.6405 H             1 RES     
    3519 CH3         -2.3424    38.7998    46.1979 CH3           1 RES     
    3520 CH2         -1.6218    38.1124    45.1167 CH2           1 RES     
    3521 CH2         -1.3202    39.1112    43.9839 CH2           1 RES     
    3522 CH2         -0.5653    38.3910    42.8512 CH2           1 RES     
    3523 CH2         -0.2636    39.3897    41.7184 CH2           1 RES     
    3524 CH2          0.4913    38.6696    40.5857 CH2           1 RES     
    3525 CH2          0.7930    39.6683    39.4529 CH2           1 RES     
    3526 CH2          1.5479    38.9482    38.3201 CH2           1 RES     
    3527 CH2          1.8496    39.9469    37.1874 CH2           1 RES     
    3528 CH2          2.6045    39.2268    36.0546 CH2           1 RES     
    3529 CH2          2.9062    40.2255    34.9219 CH2           1 RES     
    3530 CH2          3.6611    39.5053    33.7891 CH2           1 RES     
    3531 CH2          3.9628    40.5041    32.6564 CH2           1 RES     
    3532 CH2          4.7177    39.7839    31.5236 CH2           1 RES     
    3533 CH2          5.0194    40.7827    30.3909 CH2           1 RES     
    3534 O            6.0185    38.9279    29.3269 O             1 RES     
    3535 C            5.7131    40.1194    29.3309 C             1 RES     
    3536 OA           6.0024    40.9273    28.3082 OA            1 RES     
    3537 H            6.4577    40.4093    27.6405 H             1 RES     
    3538 CH3         24.9261    42.1509    46.1979 CH3           1 RES     
    3539 CH2         25.3292    41.2402    45.1167 CH2           1 RES     
    3540 CH2         25.9897    42.0478    43.9839 CH2           1 RES     
    3541 CH2         26.4121    41.0938    42.8512 CH2           1 RES     
    3542 CH2         27.0726    41.9014    41.7184 CH2           1 RES     
    3543 CH2         27.4949    40.9474    40.5857 CH2           1 RES     
    3544 CH2         28.1554    41.7550    39.4529 CH2           1 RES     
    3545 CH2         28.5778    40.8010    38.3201 CH2           1 RES     
    3546 CH2         29.2383    41.6086    37.1874 CH2           1 RES     
    3547 CH2         29.6606    40.6546    36.0546 CH2           1 RES     
    3548 CH2         30.3211    41.4622    34.9219 CH2           1 RES     
    3549 CH2         30.7434    40.5082    33.7891 CH2           1 RES     
    3550 CH2         31.4040    41.3158    32.6564 CH2           1 RES     
    3551 CH2         31.8263    40.3618    31.5236 CH2           1 RES     
    3552 CH2         32.4868    41.1694    30.3909 CH2           1 RES     
    3553 O           32.7012    39.0736    29.3269 O             1 RES     
    3554 C           32.8743    40.2913    29.3309 C             1 RES     
    3555 OA          33.4505    40.9273    28.3082 OA            1 RES     
    3556 H           33.6732    40.2746    27.6405 H             1 RES     
    3557 CH3          2.8844    19.2357    46.1979 CH3           1 RES     
    3558 CH2          3.3864    18.3756    45.1167 CH2           1 RES     
    3559 CH2          3.9529    19.2517    43.9839 CH2           1 RES     
    3560 CH2          4.4788    18.3507    42.8512 CH2           1 RES     
    3561 CH2          5.0453    19.2268    41.7184 CH2           1 RES     
    3562 CH2          5.5712    18.3257    40.5857 CH2           1 RES     
    3563 CH2          6.1377    19.2018    39.4529 CH2           1 RES     
    3564 CH2          6.6636    18.3008    38.3201 CH2           1 RES     
    3565 CH2          7.2301    19.1769    37.1874 CH2           1 RES     
    3566 CH2          7.7561    18.2759    36.0546 CH2           1 RES     
    3567 CH2          8.3226    19.1520    34.9219 CH2           1 RES     
    3568 CH2          8.8485    18.2509    33.7891 CH2           1 RES     
    3569 CH2          9.4150    19.1270    32.6564 CH2           1 RES     
    3570 CH2          9.9409    18.2260    31.5236 CH2           1 RES     
    3571 CH2         10.5074    19.1021    30.3909 CH2           1 RES     
    3572 O           10.9538    17.0432    29.3269 O             1 RES     
    3573 C           10.9902    18.2727    29.3309 C             1 RES     
    3574 OA          11.4920    18.9689    28.3082 OA            1 RES     
    3575 H           11.7860    18.3450    27.6405 H             1 RES     
    3576 CH3         14.5967    37.4410    46.1979 CH3           1 RES     
    3577 CH2         15.4216    36.8831    45.1167 CH2           1 RES     
    3578 CH2         15.5530    37.9181    43.9839 CH2           1 RES     
    3579 CH2         16.4172    37.3336    42.8512 CH2           1 RES     
    3580 CH2         16.5485    38.3686    41.7184 CH2           1 RES     
    3581 CH2         17.4127    37.7841    40.5857 CH2           1 RES     
    3582 CH2         17.5440    38.8191    39.4529 CH2           1 RES     
    3583 CH2         18.4082    38.2346    38.3201 CH2           1 RES     
    3584 CH2         18.5395    39.2696    37.1874 CH2           1 RES     
    3585 CH2         19.4037    38.6851    36.0546 CH2           1 RES     
    3586 CH2         19.5350    39.7201    34.9219 CH2           1 RES     
    3587 CH2         20.3992    39.1356    33.7891 CH2           1 RES     
    3588 CH2         20.5305    40.1706    32.6564 CH2           1 RES     
    3589 CH2         21.3947    39.5861    31.5236 CH2           1 RES     
    3590 CH2         21.5260    40.6211    30.3909 CH2           1 RES     
    3591 O           22.8198    38.9585    29.3269 O             1 RES     
    3592 C           22.3204    40.0825    29.3309 C             1 RES     
    3593 OA          22.4712    40.9273    28.3082 OA            1 RES     
    3594 H           23.0064    40.4922    27.6405 H             1 RES     
    3595 CH3          3.4094    32.9201    46.1979 CH3           1 RES     
    3596 CH2          3.6140    31.9455    45.1167 CH2           1 RES     
    3597 CH2          4.4282    32.5978    43.9839 CH2           1 RES     
    3598 CH2          4.6426    31.5768    42.8512 CH2           1 RES     
    3599 CH2          5.4568    32.2291    41.7184 CH2           1 RES     
    3600 CH2          5.6712    31.2081    40.5857 CH2           1 RES     
    3601 CH2          6.4854    31.8604    39.4529 CH2           1 RES     
    3602 CH2          6.6998    30.8393    38.3201 CH2           1 RES     
    3603 CH2          7.5140    31.4917    37.1874 CH2           1 RES     
    3604 CH2          7.7284    30.4706    36.0546 CH2           1 RES     
    3605 CH2          8.5427    31.1229    34.9219 CH2           1 RES     
    3606 CH2          8.7570    30.1019    33.7891 CH2           1 RES     
    3607 CH2          9.5713    30.7542    32.6564 CH2           1 RES     
    3608 CH2          9.7857    29.7332    31.5236 CH2           1 RES     
    3609 CH2         10.5999    30.3855    30.3909 CH2           1 RES     
    3610 O           10.3731    28.2910    29.3269 O             1 RES     
    3611 C           10.7960    29.4460    29.3309 C             1 RES     
    3612 OA          11.4920    29.9481    28.3082 OA            1 RES     
    3613 H           11.5739    29.2633    27.6405 H             1 RES     
    3614 CH3         19.9835    16.7232    46.1979 CH3           1 RES     
    3615 CH2         20.1550    15.7423    45.1167 CH2           1 RES     
    3616 CH2         20.9908    16.3666    43.9839 CH2           1 RES     
    3617 CH2         21.1705    15.3389    42.8512 CH2           1 RES     
    3618 CH2         22.0064    15.9633    41.7184 CH2           1 RES     
    3619 CH2         22.1861    14.9356    40.5857 CH2           1 RES     
    3620 CH2         23.0219    15.5600    39.4529 CH2           1 RES     
    3621 CH2         23.2016    14.5322    38.3201 CH2           1 RES     
    3622 CH2         24.0374    15.1566    37.1874 CH2           1 RES     
    3623 CH2         24.2171    14.1289    36.0546 CH2           1 RES     
    3624 CH2         25.0530    14.7533    34.9219 CH2           1 RES     
    3625 CH2         25.2327    13.7256    33.7891 CH2           1 RES     
    3626 CH2         26.0685    14.3499    32.6564 CH2           1 RES     
    3627 CH2         26.2482    13.3222    31.5236 CH2           1 RES     
    3628 CH2         27.0840    13.9466    30.3909 CH2           1 RES     
    3629 O           26.7865    11.8610    29.3269 O             1 RES     
    3630 C           27.2483    13.0010    29.3309 C             1 RES     
    3631 OA          27.9608    13.4792    28.3082 OA            1 RES     
    3632 H           28.0195    12.7920    27.6405 H             1 RES     
    3633 CH3         19.3495    41.0067    46.1979 CH3           1 RES     
    3634 CH2         19.8701    40.1577    45.1167 CH2           1 RES     
    3635 CH2         20.4174    41.0459    43.9839 CH2           1 RES     
    3636 CH2         20.9628    40.1566    42.8512 CH2           1 RES     
    3637 CH2         21.5101    41.0448    41.7184 CH2           1 RES     
    3638 CH2         22.0555    40.1554    40.5857 CH2           1 RES     
    3639 CH2         22.6028    41.0437    39.4529 CH2           1 RES     
    3640 CH2         23.1482    40.1543    38.3201 CH2           1 RES     
    3641 CH2         23.6955    41.0425    37.1874 CH2           1 RES     
    3642 CH2         24.2409    40.1531    36.0546 CH2           1 RES     
    3643 CH2         24.7882    41.0414    34.9219 CH2           1 RES     
    3644 CH2         25.3336    40.1520    33.7891 CH2           1 RES     
    3645 CH2         25.8809    41.0402    32.6564 CH2           1 RES     
    3646 CH2         26.4263    40.1509    31.5236 CH2           1 RES     
    3647 CH2         26.9736    41.0391    30.3909 CH2           1 RES     
    3648 O           27.4647    38.9904    29.3269 O             1 RES     
    3649 C           27.4744    40.2204    29.3309 C             1 RES     
    3650 OA          27.9608    40.9273    28.3082 OA            1 RES     
    3651 H           28.2684    40.3100    27.6405 H             1 RES     
    3652 CH3          8.3787     2.8905    46.1979 CH3           1 RES     
    3653 CH2          8.8683     2.0233    45.1167 CH2           1 RES     
    3654 CH2          9.4474     2.8912    43.9839 CH2           1 RES     
    3655 CH2          9.9603     1.9827    42.8512 CH2           1 RES     
    3656 CH2         10.5393     2.8506    41.7184 CH2           1 RES     
    3657 CH2         11.0522     1.9421    40.5857 CH2           1 RES     
    3658 CH2         11.6312     2.8099    39.4529 CH2           1 RES     
    3659 CH2         12.1442     1.9014    38.3201 CH2           1 RES     
    3660 CH2         12.7232     2.7693    37.1874 CH2           1 RES     
    3661 CH2         13.2361     1.8608    36.0546 CH2           1 RES     
    3662 CH2         13.8151     2.7286    34.9219 CH2           1 RES     
    3663 CH2         14.3280     1.8201    33.7891 CH2           1 RES     
    3664 CH2         14.9071     2.6880    32.6564 CH2           1 RES     
    3665 CH2         15.4200     1.7795    31.5236 CH2           1 RES     
    3666 CH2         15.9990     2.6474    30.3909 CH2           1 RES     
    3667 O           16.4158     0.5823    29.3269 O             1 RES     
    3668 C           16.4699     1.8111    29.3309 C             1 RES     
    3669 OA          16.9816     2.5000    28.3082 OA            1 RES     
    3670 H           17.2666     1.8719    27.6405 H             1 RES     
    3671 CH3          8.3710    30.0845    46.1979 CH3           1 RES     
    3672 CH2          8.8859    29.2321    45.1167 CH2           1 RES     
    3673 CH2          9.4391    30.1167    43.9839 CH2           1 RES     
    3674 CH2          9.9786    29.2237    42.8512 CH2           1 RES     
    3675 CH2         10.5318    30.1083    41.7184 CH2           1 RES     
    3676 CH2         11.0713    29.2154    40.5857 CH2           1 RES     
    3677 CH2         11.6244    30.0999    39.4529 CH2           1 RES     
    3678 CH2         12.1639    29.2070    38.3201 CH2           1 RES     
    3679 CH2         12.7171    30.0916    37.1874 CH2           1 RES     
    3680 CH2         13.2566    29.1986    36.0546 CH2           1 RES     
    3681 CH2         13.8098    30.0832    34.9219 CH2           1 RES     
    3682 CH2         14.3493    29.1902    33.7891 CH2           1 RES     
    3683 CH2         14.9024    30.0748    32.6564 CH2           1 RES     
    3684 CH2         15.4419    29.1818    31.5236 CH2           1 RES     
    3685 CH2         15.9951    30.0664    30.3909 CH2           1 RES     
    3686 O           16.4726    28.0145    29.3269 O             1 RES     
    3687 C           16.4905    29.2444    29.3309 C             1 RES     
    3688 OA          16.9816    29.9481    28.3082 OA            1 RES     
    3689 H           17.2850    29.3287    27.6405 H             1 RES     
    3690 CH3         24.9510    17.5826    46.1979 CH3           1 RES     
    3691 CH2         25.6085    16.8346    45.1167 CH2           1 RES     
    3692 CH2         25.9967    17.8029    43.9839 CH2           1 RES     
    3693 CH2         26.6854    17.0192    42.8512 CH2           1 RES     
    3694 CH2         27.0737    17.9876    41.7184 CH2           1 RES     
    3695 CH2         27.7624    17.2039    40.5857 CH2           1 RES     
    3696 CH2         28.1507    18.1723    39.4529 CH2           1 RES     
    3697 CH2         28.8394    17.3886    38.3201 CH2           1 RES     
    3698 CH2         29.2276    18.3570    37.1874 CH2           1 RES     
    3699 CH2         29.9164    17.5733    36.0546 CH2           1 RES     
    3700 CH2         30.3046    18.5417    34.9219 CH2           1 RES     
    3701 CH2         30.9933    17.7580    33.7891 CH2           1 RES     
    3702 CH2         31.3816    18.7264    32.6564 CH2           1 RES     
    3703 CH2         32.0703    17.9427    31.5236 CH2           1 RES     
    3704 CH2         32.4586    18.9111    30.3909 CH2           1 RES     
    3705 O           33.2909    16.9758    29.3269 O             1 RES     
    3706 C           33.0913    18.1895    29.3309 C             1 RES     
    3707 OA          33.4505    18.9689    28.3082 OA            1 RES     
    3708 H           33.8585    18.4128    27.6405 H             1 RES     
    3709 CH3         25.2936    10.7175    46.1979 CH3           1 RES     
    3710 CH2         26.0648    10.0874    45.1167 CH2           1 RES     
    3711 CH2         26.2890    11.1063    43.9839 CH2           1 RES     
    3712 CH2         27.0969    10.4463    42.8512 CH2           1 RES     
    3713 CH2         27.3210    11.4652    41.7184 CH2           1 RES     
    3714 CH2         28.1290    10.8051    40.5857 CH2           1 RES     
    3715 CH2         28.3531    11.8241    39.4529 CH2           1 RES     
    3716 CH2         29.1611    11.1640    38.3201 CH2           1 RES     
    3717 CH2         29.3852    12.1829    37.1874 CH2           1 RES     
    3718 CH2         30.1932    11.5229    36.0546 CH2           1 RES     
    3719 CH2         30.4173    12.5418    34.9219 CH2           1 RES     
    3720 CH2         31.2252    11.8817    33.7891 CH2           1 RES     
    3721 CH2         31.4494    12.9007    32.6564 CH2           1 RES     
    3722 CH2         32.2573    12.2406    31.5236 CH2           1 RES     
    3723 CH2         32.4815    13.2595    30.3909 CH2           1 RES     
    3724 O           33.6200    11.4870    29.3269 O             1 RES     
    3725 C           33.2240    12.6515    29.3309 C             1 RES     
    3726 OA          33.4505    13.4792    28.3082 OA            1 RES     
    3727 H           33.9442    12.9976    27.6405 H             1 RES     
    3728 CH3         13.8993    36.2648    46.1979 CH3           1 RES     
    3729 CH2         14.3442    35.3739    45.1167 CH2           1 RES     
    3730 CH2         14.9666    36.2112    43.9839 CH2           1 RES     
    3731 CH2         15.4327    35.2778    42.8512 CH2           1 RES     
    3732 CH2         16.0551    36.1151    41.7184 CH2           1 RES     
    3733 CH2         16.5211    35.1817    40.5857 CH2           1 RES     
    3734 CH2         17.1435    36.0191    39.4529 CH2           1 RES     
    3735 CH2         17.6096    35.0857    38.3201 CH2           1 RES     
    3736 CH2         18.2320    35.9230    37.1874 CH2           1 RES     
    3737 CH2         18.6981    34.9896    36.0546 CH2           1 RES     
    3738 CH2         19.3205    35.8269    34.9219 CH2           1 RES     
    3739 CH2         19.7865    34.8936    33.7891 CH2           1 RES     
    3740 CH2         20.4089    35.7309    32.6564 CH2           1 RES     
    3741 CH2         20.8750    34.7975    31.5236 CH2           1 RES     
    3742 CH2         21.4974    35.6348    30.3909 CH2           1 RES     
    3743 O           21.8087    33.5512    29.3269 O             1 RES     
    3744 C           21.9252    34.7757    29.3309 C             1 RES     
    3745 OA          22.4712    35.4377    28.3082 OA            1 RES     
    3746 H           22.7240    34.7960    27.6405 H             1 RES     
    3747 CH3         19.5848     5.9887    46.1979 CH3           1 RES     
    3748 CH2         20.2949     5.2904    45.1167 CH2           1 RES     
    3749 CH2         20.6117     6.2845    43.9839 CH2           1 RES     
    3750 CH2         21.3556     5.5530    42.8512 CH2           1 RES     
    3751 CH2         21.6724     6.5470    41.7184 CH2           1 RES     
    3752 CH2         22.4163     5.8156    40.5857 CH2           1 RES     
    3753 CH2         22.7330     6.8096    39.4529 CH2           1 RES     
    3754 CH2         23.4769     6.0781    38.3201 CH2           1 RES     
    3755 CH2         23.7937     7.0722    37.1874 CH2           1 RES     
    3756 CH2         24.5376     6.3407    36.0546 CH2           1 RES     
    3757 CH2         24.8544     7.3347    34.9219 CH2           1 RES     
    3758 CH2         25.5983     6.6032    33.7891 CH2           1 RES     
    3759 CH2         25.9151     7.5973    32.6564 CH2           1 RES     
    3760 CH2         26.6590     6.8658    31.5236 CH2           1 RES     
    3761 CH2         26.9758     7.8598    30.3909 CH2           1 RES     
    3762 O           27.9467     5.9902    29.3269 O             1 RES     
    3763 C           27.6593     7.1862    29.3309 C             1 RES     
    3764 OA          27.9608     7.9896    28.3082 OA            1 RES     
    3765 H           28.4083     7.4647    27.6405 H             1 RES     
    3766 CH3         30.8173    10.6187    46.1979 CH3           1 RES     
    3767 CH2         31.5961     9.9981    45.1167 CH2           1 RES     
    3768 CH2         31.8079    11.0196    43.9839 CH2           1 RES     
    3769 CH2         32.6238    10.3694    42.8512 CH2           1 RES     
    3770 CH2         32.8355    11.3910    41.7184 CH2           1 RES     
    3771 CH2         33.6514    10.7408    40.5857 CH2           1 RES     
    3772 CH2         33.8632    11.7624    39.4529 CH2           1 RES     
    3773 CH2         34.6791    11.1121    38.3201 CH2           1 RES     
    3774 CH2         34.8909    12.1337    37.1874 CH2           1 RES     
    3775 CH2         35.7067    11.4835    36.0546 CH2           1 RES     
    3776 CH2         35.9185    12.5051    34.9219 CH2           1 RES     
    3777 CH2         36.7344    11.8549    33.7891 CH2           1 RES     
    3778 CH2         36.9462    12.8764    32.6564 CH2           1 RES     
    3779 CH2         37.7621    12.2262    31.5236 CH2           1 RES     
    3780 CH2         37.9738    13.2478    30.3909 CH2           1 RES     
    3781 O           39.1338    11.4892    29.3269 O             1 RES     
    3782 C           38.7237    12.6488    29.3309 C             1 RES     
    3783 OA          38.9401    13.4792    28.3082 OA            1 RES     
    3784 H           39.4396    13.0037    27.6405 H             1 RES     
    3785 CH3         19.3726    25.0942    46.1979 CH3           1 RES     
    3786 CH2         19.8373    24.2134    45.1167 CH2           1 RES     
    3787 CH2         20.4408    25.0644    43.9839 CH2           1 RES     
    3788 CH2         20.9276    24.1417    42.8512 CH2           1 RES     
    3789 CH2         21.5312    24.9927    41.7184 CH2           1 RES     
    3790 CH2         22.0180    24.0699    40.5857 CH2           1 RES     
    3791 CH2         22.6215    24.9209    39.4529 CH2           1 RES     
    3792 CH2         23.1083    23.9981    38.3201 CH2           1 RES     
    3793 CH2         23.7118    24.8491    37.1874 CH2           1 RES     
    3794 CH2         24.1986    23.9263    36.0546 CH2           1 RES     
    3795 CH2         24.8022    24.7773    34.9219 CH2           1 RES     
    3796 CH2         25.2890    23.8546    33.7891 CH2           1 RES     
    3797 CH2         25.8925    24.7056    32.6564 CH2           1 RES     
    3798 CH2         26.3793    23.7828    31.5236 CH2           1 RES     
    3799 CH2         26.9828    24.6338    30.3909 CH2           1 RES     
    3800 O           27.3405    22.5577    29.3269 O             1 RES     
    3801 C           27.4297    23.7844    29.3309 C             1 RES     
    3802 OA          27.9608    24.4585    28.3082 OA            1 RES     
    3803 H           28.2278    23.8225    27.6405 H             1 RES     
    3804 CH3         19.3840    36.2126    46.1979 CH3           1 RES     
    3805 CH2         19.8344    35.3243    45.1167 CH2           1 RES     
    3806 CH2         20.4516    36.1654    43.9839 CH2           1 RES     
    3807 CH2         20.9234    35.2349    42.8512 CH2           1 RES     
    3808 CH2         21.5407    36.0760    41.7184 CH2           1 RES     
    3809 CH2         22.0124    35.1455    40.5857 CH2           1 RES     
    3810 CH2         22.6297    35.9866    39.4529 CH2           1 RES     
    3811 CH2         23.1015    35.0560    38.3201 CH2           1 RES     
    3812 CH2         23.7187    35.8972    37.1874 CH2           1 RES     
    3813 CH2         24.1905    34.9666    36.0546 CH2           1 RES     
    3814 CH2         24.8078    35.8077    34.9219 CH2           1 RES     
    3815 CH2         25.2795    34.8772    33.7891 CH2           1 RES     
    3816 CH2         25.8968    35.7183    32.6564 CH2           1 RES     
    3817 CH2         26.3686    34.7878    31.5236 CH2           1 RES     
    3818 CH2         26.9858    35.6289    30.3909 CH2           1 RES     
    3819 O           27.3098    33.5472    29.3269 O             1 RES     
    3820 C           27.4188    34.7724    29.3309 C             1 RES     
    3821 OA          27.9608    35.4377    28.3082 OA            1 RES     
    3822 H           28.2175    34.7975    27.6405 H             1 RES     
    3823 CH3         -7.4350    11.3055    46.1979 CH3           1 RES     
    3824 CH2         -7.2723    10.3230    45.1167 CH2           1 RES     
    3825 CH2         -6.4309    10.9398    43.9839 CH2           1 RES     
    3826 CH2         -6.2605     9.9106    42.8512 CH2           1 RES     
    3827 CH2         -5.4190    10.5273    41.7184 CH2           1 RES     
    3828 CH2         -5.2486     9.4981    40.5857 CH2           1 RES     
    3829 CH2         -4.4072    10.1149    39.4529 CH2           1 RES     
    3830 CH2         -4.2368     9.0856    38.3201 CH2           1 RES     
    3831 CH2         -3.3953     9.7024    37.1874 CH2           1 RES     
    3832 CH2         -3.2249     8.6731    36.0546 CH2           1 RES     
    3833 CH2         -2.3835     9.2899    34.9219 CH2           1 RES     
    3834 CH2         -2.2131     8.2606    33.7891 CH2           1 RES     
    3835 CH2         -1.3716     8.8774    32.6564 CH2           1 RES     
    3836 CH2         -1.2012     7.8481    31.5236 CH2           1 RES     
    3837 CH2         -0.3598     8.4649    30.3909 CH2           1 RES     
    3838 O           -0.6762     6.3821    29.3269 O             1 RES     
    3839 C           -0.2041     7.5179    29.3309 C             1 RES     
    3840 OA           0.5128     7.9896    28.3082 OA            1 RES     
    3841 H            0.5652     7.3019    27.6405 H             1 RES     
    3842 CH3         30.5101    37.1974    46.1979 CH3           1 RES     
    3843 CH2         30.8548    36.2631    45.1167 CH2           1 RES     
    3844 CH2         31.5651    37.0274    43.9839 CH2           1 RES     
    3845 CH2         31.9263    36.0486    42.8512 CH2           1 RES     
    3846 CH2         32.6365    36.8128    41.7184 CH2           1 RES     
    3847 CH2         32.9977    35.8341    40.5857 CH2           1 RES     
    3848 CH2         33.7079    36.5983    39.4529 CH2           1 RES     
    3849 CH2         34.0691    35.6195    38.3201 CH2           1 RES     
    3850 CH2         34.7794    36.3838    37.1874 CH2           1 RES     
    3851 CH2         35.1406    35.4050    36.0546 CH2           1 RES     
    3852 CH2         35.8508    36.1692    34.9219 CH2           1 RES     
    3853 CH2         36.2120    35.1904    33.7891 CH2           1 RES     
    3854 CH2         36.9222    35.9547    32.6564 CH2           1 RES     
    3855 CH2         37.2834    34.9759    31.5236 CH2           1 RES     
    3856 CH2         37.9936    35.7401    30.3909 CH2           1 RES     
    3857 O           38.0752    33.6350    29.3269 O             1 RES     
    3858 C           38.3249    34.8394    29.3309 C             1 RES     
    3859 OA          38.9401    35.4377    28.3082 OA            1 RES     
    3860 H           39.1211    34.7722    27.6405 H             1 RES     
    3861 OW          15.9040    26.0820    79.0330 OW            1 RES     
    3862 HW1         16.2730    26.6010    79.8030 HW1           1 RES     
    3863 HW2         14.9050    26.0840    79.0770 HW2           1 RES     
    3864 OW          13.3030     9.4820    98.9710 OW            1 RES     
    3865 HW1         13.8740     8.9360    98.3600 HW1           1 RES     
    3866 HW2         13.5400     9.2790    99.9210 HW2           1 RES     
    3867 OW          13.3260    18.4900    96.4040 OW            1 RES     
    3868 HW1         13.1190    17.7140    97.0000 HW1           1 RES     
    3869 HW2         13.0870    19.3420    96.8700 HW2           1 RES     
    3870 OW           5.3050    15.4330    88.4800 OW            1 RES     
    3871 HW1          5.4940    16.4120    88.4180 HW1           1 RES     
    3872 HW2          6.1360    14.9490    88.7560 HW2           1 RES     
    3873 OW           9.6860    31.7260    87.4030 OW            1 RES     
    3874 HW1         10.0920    32.5690    87.7540 HW1           1 RES     
    3875 HW2          9.1360    31.9320    86.5930 HW2           1 RES     
    3876 OW          16.9270    29.6110    97.0270 OW            1 RES     
    3877 HW1         16.2330    29.3150    97.6830 HW1           1 RES     
    3878 HW2         16.8010    29.1210    96.1640 HW2           1 RES     
    3879 OW          40.1560     7.9580    95.8540 OW            1 RES     
    3880 HW1         40.2290     7.4010    95.0270 HW1           1 RES     
    3881 HW2         40.7960     8.7240    95.7980 HW2           1 RES     
    3882 OW          29.9890    40.7080    81.1050 OW            1 RES     
    3883 HW1         30.3290    39.7970    80.8750 HW1           1 RES     
    3884 HW2         29.2030    40.9270    80.5260 HW2           1 RES     
    3885 OW          19.3410     9.0940    96.4420 OW            1 RES     
    3886 HW1         20.3210     9.1810    96.2660 HW1           1 RES     
    3887 HW2         19.0450     9.8310    97.0500 HW2           1 RES     
    3888 OW           2.9390    38.3030    89.8280 OW            1 RES     
    3889 HW1          2.5040    37.5960    89.2720 HW1           1 RES     
    3890 HW2          2.5000    38.3390    90.7260 HW2           1 RES     
    3891 OW          15.1170    23.2050    88.4130 OW            1 RES     
    3892 HW1         15.9090    22.5950    88.4070 HW1           1 RES     
    3893 HW2         14.2820    22.6690    88.2860 HW2           1 RES     
    3894 OW          38.6220    10.6190    96.0010 OW            1 RES     
    3895 HW1         38.7040    11.5720    96.2890 HW1           1 RES     
    3896 HW2         39.2150    10.0470    96.5690 HW2           1 RES     
    3897 OW          11.2580    24.4890    95.2580 OW            1 RES     
    3898 HW1         11.8980    23.7240    95.3300 HW1           1 RES     
    3899 HW2         11.0080    24.6260    94.2990 HW2           1 RES     
    3900 OW          23.4200     6.4460    84.1130 OW            1 RES     
    3901 HW1         23.8180     5.5310    84.0640 HW1           1 RES     
    3902 HW2         23.9220     7.0620    83.5060 HW2           1 RES     
    3903 OW          33.7970    38.5430    88.5630 OW            1 RES     
    3904 HW1         34.7560    38.2590    88.5660 HW1           1 RES     
    3905 HW2         33.7170    39.4420    88.1330 HW2           1 RES     
    3906 OW          33.8510    38.0050    86.3620 OW            1 RES     
    3907 HW1         34.2350    37.0840    86.4080 HW1           1 RES     
    3908 HW2         34.5900    38.6710    86.2600 HW2           1 RES     
    3909 OW          34.2870    31.3130    86.0430 OW            1 RES     
    3910 HW1         35.0920    31.8760    85.8610 HW1           1 RES     
    3911 HW2         34.5740    30.4310    86.4170 HW2           1 RES     
    3912 OW          20.0800    22.4350    78.7180 OW            1 RES     
    3913 HW1         19.1170    22.6990    78.6940 HW1           1 RES     
    3914 HW2         20.1530    21.4370    78.7050 HW2           1 RES     
    3915 OW          12.3500     3.0130   100.0280 OW            1 RES     
    3916 HW1         12.3070     3.9790   100.2770 HW1           1 RES     
    3917 HW2         13.3040     2.7120   100.0200 HW2           1 RES     
    3918 OW          18.5970    33.3440    96.1200 OW            1 RES     
    3919 HW1         17.7550    33.0560    96.5760 HW1           1 RES     
    3920 HW2         18.5720    33.0580    95.1620 HW2           1 RES     
    3921 OW          13.1250    30.4830    81.8500 OW            1 RES     
    3922 HW1         13.8560    29.8070    81.9360 HW1           1 RES     
    3923 HW2         13.5170    31.4030    81.8730 HW2           1 RES     
    3924 OW          19.5090    39.6030    88.5970 OW            1 RES     
    3925 HW1         19.8520    40.2830    87.9500 HW1           1 RES     
    3926 HW2         20.0450    38.7620    88.5130 HW2           1 RES     
    3927 OW          32.3220    40.8090    85.4520 OW            1 RES     
    3928 HW1         31.5610    40.9270    86.0890 HW1           1 RES     
    3929 HW2         31.9920    40.9180    84.5140 HW2           1 RES     
    3930 OW          21.3900    30.5100    80.7150 OW            1 RES     
    3931 HW1         21.1360    29.5550    80.5670 HW1           1 RES     
    3932 HW2         21.9500    30.8290    79.9500 HW2           1 RES     
    3933 OW          30.9860    24.5390   100.3630 OW            1 RES     
    3934 HW1         31.3960    24.1460    99.5410 HW1           1 RES     
    3935 HW2         30.0130    24.7090   100.2020 HW2           1 RES     
    3936 OW          13.9140    31.1580    89.8500 OW            1 RES     
    3937 HW1         13.7170    30.9300    88.8970 HW1           1 RES     
    3938 HW2         14.4860    31.9780    89.8850 HW2           1 RES     
    3939 OW          28.0000     8.3250    98.5250 OW            1 RES     
    3940 HW1         28.2350     8.7130    99.4150 HW1           1 RES     
    3941 HW2         28.1730     9.0020    97.8090 HW2           1 RES     
    3942 OW           5.4090    40.6120    93.7620 OW            1 RES     
    3943 HW1          5.7130    39.6650    93.8550 HW1           1 RES     
    3944 HW2          4.4110    40.6390    93.7040 HW2           1 RES     
    3945 OW          26.4010    12.7500    93.0570 OW            1 RES     
    3946 HW1         27.3970    12.8020    93.1270 HW1           1 RES     
    3947 HW2         26.0670    11.9840    93.6070 HW2           1 RES     
    3948 OW           9.9080    31.9720    93.6340 OW            1 RES     
    3949 HW1         10.0700    31.1370    93.1090 HW1           1 RES     
    3950 HW2         10.7390    32.2210    94.1310 HW2           1 RES     
    3951 OW          14.3540     4.2370    79.9660 OW            1 RES     
    3952 HW1         13.4380     4.6050    80.1260 HW1           1 RES     
    3953 HW2         14.3390     3.2430    80.0820 HW2           1 RES     
    3954 OW          23.8750    10.4800    79.9810 OW            1 RES     
    3955 HW1         23.5170     9.5480    80.0280 HW1           1 RES     
    3956 HW2         23.1250    11.1170    79.8030 HW2           1 RES     
    3957 OW          31.9150    21.3500    97.5360 OW            1 RES     
    3958 HW1         32.4870    20.5310    97.5530 HW1           1 RES     
    3959 HW2         31.8360    21.7220    98.4610 HW2           1 RES     
    3960 OW          34.6850    25.5860    79.7320 OW            1 RES     
    3961 HW1         33.7460    25.7630    79.4400 HW1           1 RES     
    3962 HW2         35.0790    26.4220    80.1160 HW2           1 RES     
    3963 OW          16.1700    18.2490    84.9640 OW            1 RES     
    3964 HW1         15.4270    18.8740    85.2000 HW1           1 RES     
    3965 HW2         17.0430    18.6430    85.2510 HW2           1 RES     
    3966 OW          28.8980     7.0180    91.7770 OW            1 RES     
    3967 HW1         27.9770     6.6400    91.6960 HW1           1 RES     
    3968 HW2         29.5550     6.3900    91.3600 HW2           1 RES     
    3969 OW          32.2910     8.8260    80.7140 OW            1 RES     
    3970 HW1         31.7980     8.9580    79.8550 HW1           1 RES     
    3971 HW2         31.6590     8.9390    81.4820 HW2           1 RES     
    3972 OW          15.3310    39.2220    90.8180 OW            1 RES     
    3973 HW1         15.4980    40.0580    91.3400 HW1           1 RES     
    3974 HW2         14.7270    38.6180    91.3400 HW2           1 RES     
    3975 OW           4.9920    28.7920    94.2190 OW            1 RES     
    3976 HW1          5.6270    28.6850    94.9830 HW1           1 RES     
    3977 HW2          4.5530    27.9150    94.0240 HW2           1 RES     
    3978 OW           7.8020    16.2390    90.5980 OW            1 RES     
    3979 HW1          8.6070    16.0260    90.0450 HW1           1 RES     
    3980 HW2          7.6320    15.4930    91.2420 HW2           1 RES     
    3981 OW           5.0050    16.5060    99.1690 OW            1 RES     
    3982 HW1          4.7110    16.0840   100.0260 HW1           1 RES     
    3983 HW2          5.8800    16.1110    98.8850 HW2           1 RES     
    3984 OW          25.9810     5.3860    79.3720 OW            1 RES     
    3985 HW1         25.3850     5.8380    78.7090 HW1           1 RES     
    3986 HW2         26.0470     4.4130    79.1530 HW2           1 RES     
    3987 OW          20.1520    38.0370    95.1860 OW            1 RES     
    3988 HW1         20.0920    37.5800    96.0730 HW1           1 RES     
    3989 HW2         19.3090    38.5490    95.0170 HW2           1 RES     
    3990 OW           3.9910     6.0520    96.9920 OW            1 RES     
    3991 HW1          4.4520     6.7500    97.5400 HW1           1 RES     
    3992 HW2          3.2020     6.4570    96.5300 HW2           1 RES     
    3993 OW          30.9770    10.1190    98.2820 OW            1 RES     
    3994 HW1         30.0860     9.7750    98.5730 HW1           1 RES     
    3995 HW2         31.6700     9.4120    98.4220 HW2           1 RES     
    3996 OW          37.5230    28.1680    99.6430 OW            1 RES     
    3997 HW1         36.9310    28.7140    99.0510 HW1           1 RES     
    3998 HW2         36.9720    27.7330   100.3560 HW2           1 RES     
    3999 OW          13.2970    36.7400   100.3620 OW            1 RES     
    4000 HW1         12.3070    36.8570   100.2920 HW1           1 RES     
    4001 HW2         13.5230    35.7670   100.3190 HW2           1 RES     
    4002 OW          30.0820     3.2580    85.4240 OW            1 RES     
    4003 HW1         29.9500     2.9020    86.3480 HW1           1 RES     
    4004 HW2         30.2610     2.5010    84.7960 HW2           1 RES     
    4005 OW          16.6860    30.2750    99.6120 OW            1 RES     
    4006 HW1         17.3180    30.4740   100.3610 HW1           1 RES     
    4007 HW2         16.6310    31.0660    99.0020 HW2           1 RES     
    4008 OW          18.4690    21.4030    90.2800 OW            1 RES     
    4009 HW1         17.8640    22.1560    90.0200 HW1           1 RES     
    4010 HW2         19.0010    21.1140    89.4850 HW2           1 RES     
    4011 OW          26.0780    40.9270    88.7350 OW            1 RES     
    4012 HW1         25.3380    40.2800    88.5550 HW1           1 RES     
    4013 HW2         26.6980    40.5430    89.4190 HW2           1 RES     
    4014 OW           3.3320    25.1560    78.6940 OW            1 RES     
    4015 HW1          2.5350    24.5530    78.6940 HW1           1 RES     
    4016 HW2          4.1670    24.6060    78.6960 HW2           1 RES     
    4017 OW          31.3750    31.0810    80.4060 OW            1 RES     
    4018 HW1         31.6110    30.4100    79.7040 HW1           1 RES     
    4019 HW2         32.1990    31.5730    80.6890 HW2           1 RES     
    4020 OW          25.0620    10.9950   100.2340 OW            1 RES     
    4021 HW1         24.9490    10.0110   100.3630 HW1           1 RES     
    4022 HW2         26.0230    11.2410   100.3610 HW2           1 RES     
    4023 OW          15.1580    27.4790    94.3250 OW            1 RES     
    4024 HW1         15.9730    28.0550    94.2650 HW1           1 RES     
    4025 HW2         14.3400    28.0470    94.2330 HW2           1 RES     
    4026 OW          22.1810    11.5800    88.7050 OW            1 RES     
    4027 HW1         22.1670    10.5860    88.8100 HW1           1 RES     
    4028 HW2         23.1260    11.8910    88.6030 HW2           1 RES     
    4029 OW          39.5990    38.8500    82.0000 OW            1 RES     
    4030 HW1         38.9900    38.0650    81.8930 HW1           1 RES     
    4031 HW2         40.5390    38.5730    81.8010 HW2           1 RES     
    4032 OW           8.2840    23.8300    97.0730 OW            1 RES     
    4033 HW1          7.8200    23.0390    97.4710 HW1           1 RES     
    4034 HW2          8.9450    23.5190    96.3900 HW2           1 RES     
    4035 OW          13.8280    13.6270    84.2800 OW            1 RES     
    4036 HW1         13.2050    14.2380    84.7670 HW1           1 RES     
    4037 HW2         13.6230    12.6780    84.5240 HW2           1 RES     
    4038 OW          22.0780    14.8340    92.7790 OW            1 RES     
    4039 HW1         21.7260    14.5600    91.8850 HW1           1 RES     
    4040 HW2         22.7360    14.1530    93.1020 HW2           1 RES     
    4041 OW          39.4460     9.3510    91.8100 OW            1 RES     
    4042 HW1         39.6810    10.1490    92.3640 HW1           1 RES     
    4043 HW2         40.1110     9.2500    91.0710 HW2           1 RES     
    4044 OW           9.3140    35.8440    85.5440 OW            1 RES     
    4045 HW1          8.6000    35.5460    86.1770 HW1           1 RES     
    4046 HW2          9.0010    36.6520    85.0450 HW2           1 RES     
    4047 OW          12.9380    34.7960    87.6070 OW            1 RES     
    4048 HW1         13.3470    34.1120    87.0050 HW1           1 RES     
    4049 HW2         12.0220    34.4980    87.8770 HW2           1 RES     
    4050 OW          34.8500    18.6110    99.6760 OW            1 RES     
    4051 HW1         35.0010    19.3380   100.3450 HW1           1 RES     
    4052 HW2         35.1120    17.7320   100.0730 HW2           1 RES     
    4053 OW           8.7160    27.7600    85.8190 OW            1 RES     
    4054 HW1          8.0040    27.1030    86.0630 HW1           1 RES     
    4055 HW2          9.6040    27.4200    86.1290 HW2           1 RES     
    4056 OW           9.0060    28.7470    90.7090 OW            1 RES     
    4057 HW1          9.8460    29.0180    90.2400 HW1           1 RES     
    4058 HW2          9.1680    27.9050    91.2240 HW2           1 RES     
    4059 OW          30.7420     5.3540    89.1080 OW            1 RES     
    4060 HW1         31.0280     6.2540    89.4350 HW1           1 RES     
    4061 HW2         31.4730     4.9500    88.5580 HW2           1 RES     
    4062 OW          26.5450    40.9050    85.6490 OW            1 RES     
    4063 HW1         26.4200    40.0660    85.1220 HW1           1 RES     
    4064 HW2         25.8930    40.9240    86.4070 HW2           1 RES     
    4065 OW          31.4550    11.4640    80.5880 OW            1 RES     
    4066 HW1         31.7980    11.5180    81.5260 HW1           1 RES     
    4067 HW2         30.9880    12.3170    80.3540 HW2           1 RES     
    4068 OW          10.3170     6.6280   100.1110 OW            1 RES     
    4069 HW1         11.1450     7.1270   100.3640 HW1           1 RES     
    4070 HW2          9.9440     7.0070    99.2630 HW2           1 RES     
    4071 OW          15.2990    16.3110    79.6130 OW            1 RES     
    4072 HW1         16.1290    16.8250    79.8250 HW1           1 RES     
    4073 HW2         14.6480    16.9070    79.1440 HW2           1 RES     
    4074 OW          26.5740    16.9220    87.8640 OW            1 RES     
    4075 HW1         27.1010    16.8790    87.0160 HW1           1 RES     
    4076 HW2         27.0990    17.4130    88.5590 HW2           1 RES     
    4077 OW          23.3120    14.5260    88.1910 OW            1 RES     
    4078 HW1         23.3540    14.7230    89.1700 HW1           1 RES     
    4079 HW2         22.7100    15.1870    87.7430 HW2           1 RES     
    4080 OW          16.6820    12.6330    95.6880 OW            1 RES     
    4081 HW1         16.2820    12.1770    94.8940 HW1           1 RES     
    4082 HW2         15.9980    12.7000    96.4140 HW2           1 RES     
    4083 OW          25.8510     5.2880    93.0810 OW            1 RES     
    4084 HW1         26.4740     5.1550    92.3110 HW1           1 RES     
    4085 HW2         25.4640     4.4070    93.3540 HW2           1 RES     
    4086 OW          32.2850    14.1540   100.2840 OW            1 RES     
    4087 HW1         31.7240    14.9760   100.2030 HW1           1 RES     
    4088 HW2         33.2480    14.4120   100.3640 HW2           1 RES     
    4089 OW          19.2280     4.4890    82.4710 OW            1 RES     
    4090 HW1         20.1810     4.2090    82.3660 HW1           1 RES     
    4091 HW2         19.1740     5.4870    82.4980 HW2           1 RES     
    4092 OW           2.9190    40.4360    97.3720 OW            1 RES     
    4093 HW1          3.9060    40.4360    97.5280 HW1           1 RES     
    4094 HW2          2.5000    39.6890    97.8890 HW2           1 RES     
    4095 OW          15.9630    22.1800    78.8220 OW            1 RES     
    4096 HW1         15.4410    23.0300    78.7580 HW1           1 RES     
    4097 HW2         16.9410    22.3850    78.7760 HW2           1 RES     
    4098 OW           6.5120    27.2340    98.0720 OW            1 RES     
    4099 HW1          5.5940    26.8400    98.0630 HW1           1 RES     
    4100 HW2          7.1810    26.5260    97.8460 HW2           1 RES     
    4101 OW          23.4770    21.0740    81.8900 OW            1 RES     
    4102 HW1         24.4510    20.8760    81.9920 HW1           1 RES     
    4103 HW2         23.2620    21.9400    82.3410 HW2           1 RES     
    4104 OW          11.1220    36.6930    86.4660 OW            1 RES     
    4105 HW1         12.0310    36.6810    86.8820 HW1           1 RES     
    4106 HW2         10.4310    36.8230    87.1770 HW2           1 RES     
    4107 OW          38.2720    29.8900    90.5680 OW            1 RES     
    4108 HW1         38.0650    29.0270    91.0270 HW1           1 RES     
    4109 HW2         37.5330    30.5430    90.7360 HW2           1 RES     
    4110 OW          20.0430    34.4730    97.8790 OW            1 RES     
    4111 HW1         20.1620    33.4970    97.7040 HW1           1 RES     
    4112 HW2         19.0780    34.7170    97.7740 HW2           1 RES     
    4113 OW           6.4670    30.2810    97.7210 OW            1 RES     
    4114 HW1          5.8590    30.9900    97.3650 HW1           1 RES     
    4115 HW2          6.2290    29.4010    97.3100 HW2           1 RES     
    4116 OW          20.7020    33.4420    84.8870 OW            1 RES     
    4117 HW1         20.1840    32.5900    84.8100 HW1           1 RES     
    4118 HW2         20.2240    34.1690    84.3940 HW2           1 RES     
    4119 OW           5.0770    12.0450    86.8200 OW            1 RES     
    4120 HW1          4.1540    12.4140    86.7140 HW1           1 RES     
    4121 HW2          5.0280    11.0570    86.9630 HW2           1 RES     
    4122 OW          22.1480    19.9330    90.8410 OW            1 RES     
    4123 HW1         21.6440    20.7190    91.1950 HW1           1 RES     
    4124 HW2         23.0460    20.2300    90.5170 HW2           1 RES     
    4125 OW          13.1210    37.1520    93.5130 OW            1 RES     
    4126 HW1         13.8400    37.7520    93.1620 HW1           1 RES     
    4127 HW2         12.9620    37.3530    94.4800 HW2           1 RES     
    4128 OW          27.0410    27.4520    83.4650 OW            1 RES     
    4129 HW1         27.5020    28.1150    82.8750 HW1           1 RES     
    4130 HW2         27.2750    26.5250    83.1730 HW2           1 RES     
    4131 OW          25.9130    27.9680    99.0970 OW            1 RES     
    4132 HW1         25.8350    27.0270    99.4260 HW1           1 RES     
    4133 HW2         25.0240    28.4220    99.1710 HW2           1 RES     
    4134 OW          10.9940    40.9270    91.1530 OW            1 RES     
    4135 HW1         10.0740    40.8050    91.5250 HW1           1 RES     
    4136 HW2         11.6600    40.9150    91.8990 HW2           1 RES     
    4137 OW          10.9840     4.1400    81.6770 OW            1 RES     
    4138 HW1         11.0120     3.1430    81.6140 HW1           1 RES     
    4139 HW2         11.9170     4.4990    81.7130 HW2           1 RES     
    4140 OW          29.2750    18.7930    79.6420 OW            1 RES     
    4141 HW1         29.1840    19.7870    79.6930 HW1           1 RES     
    4142 HW2         29.5730    18.5320    78.7240 HW2           1 RES     
    4143 OW          27.1460    10.2520    94.4290 OW            1 RES     
    4144 HW1         27.8720    10.7900    94.0030 HW1           1 RES     
    4145 HW2         27.5510     9.5330    94.9950 HW2           1 RES     
    4146 OW          33.1620    39.7210    94.8420 OW            1 RES     
    4147 HW1         34.0200    39.6550    95.3500 HW1           1 RES     
    4148 HW2         33.3140    40.2300    93.9950 HW2           1 RES     
    4149 OW           6.5630    35.3280    89.5630 OW            1 RES     
    4150 HW1          5.7070    35.3570    90.0770 HW1           1 RES     
    4151 HW2          6.5620    34.5330    88.9560 HW2           1 RES     
    4152 OW           3.1200     8.9620    88.7200 OW            1 RES     
    4153 HW1          2.5000     8.2000    88.9040 HW1           1 RES     
    4154 HW2          4.0670     8.6500    88.8040 HW2           1 RES     
    4155 OW          25.8860    16.7910    91.3600 OW            1 RES     
    4156 HW1         26.0660    16.7320    90.3790 HW1           1 RES     
    4157 HW2         26.5180    17.4450    91.7760 HW2           1 RES     
    4158 OW          32.5660    36.8530    91.8230 OW            1 RES     
    4159 HW1         32.8930    37.7970    91.8500 HW1           1 RES     
    4160 HW2         33.3210    36.2440    91.5810 HW2           1 RES     
    4161 OW          12.0730    32.4030    84.5780 OW            1 RES     
    4162 HW1         12.9380    31.9020    84.5890 HW1           1 RES     
    4163 HW2         11.3120    31.7550    84.5700 HW2           1 RES     
    4164 OW          36.0010    18.9360    96.2000 OW            1 RES     
    4165 HW1         36.6440    18.1730    96.1430 HW1           1 RES     
    4166 HW2         36.2640    19.6440    95.5440 HW2           1 RES     
    4167 OW          29.3210    13.9960   100.3320 OW            1 RES     
    4168 HW1         29.5730    14.7920    99.7830 HW1           1 RES     
    4169 HW2         30.0890    13.3560   100.3640 HW2           1 RES     
    4170 OW          19.9450    27.2550    87.9350 OW            1 RES     
    4171 HW1         19.2820    27.9780    87.7440 HW1           1 RES     
    4172 HW2         19.5830    26.6480    88.6430 HW2           1 RES     
    4173 OW          25.1410    25.7470    83.4100 OW            1 RES     
    4174 HW1         25.2390    24.8180    83.0530 HW1           1 RES     
    4175 HW2         25.1410    26.3980    82.6520 HW2           1 RES     
    4176 OW          21.8660    39.5010    94.6710 OW            1 RES     
    4177 HW1         22.4370    38.8310    95.1440 HW1           1 RES     
    4178 HW2         22.2180    40.4210    94.8440 HW2           1 RES     
    4179 OW           7.8680     2.5050    97.7230 OW            1 RES     
    4180 HW1          7.4710     3.4220    97.7550 HW1           1 RES     
    4181 HW2          8.8630     2.5740    97.6540 HW2           1 RES     
    4182 OW          12.7030    12.3780    99.3570 OW            1 RES     
    4183 HW1         12.2280    13.2220    99.6040 HW1           1 RES     
    4184 HW2         12.0960    11.5970    99.5070 HW2           1 RES     
    4185 OW          12.4600    16.5760    83.6720 OW            1 RES     
    4186 HW1         11.8060    15.8950    84.0010 HW1           1 RES     
    4187 HW2         12.3930    17.4010    84.2320 HW2           1 RES     
    4188 OW          30.6630    14.6270    81.1620 OW            1 RES     
    4189 HW1         30.3870    15.5820    81.0560 HW1           1 RES     
    4190 HW2         31.5650    14.4920    80.7500 HW2           1 RES     
    4191 OW          15.3880    29.5280    89.9580 OW            1 RES     
    4192 HW1         16.3120    29.9080    89.9740 HW1           1 RES     
    4193 HW2         15.4130    28.5750    90.2620 HW2           1 RES     
    4194 OW          18.9440    36.5900    85.6070 OW            1 RES     
    4195 HW1         19.3380    36.3570    84.7190 HW1           1 RES     
    4196 HW2         18.2030    37.2510    85.4790 HW2           1 RES     
    4197 OW          26.4730     5.7660    89.1710 OW            1 RES     
    4198 HW1         27.0340     5.5690    89.9750 HW1           1 RES     
    4199 HW2         26.2310     4.9100    88.7150 HW2           1 RES     
    4200 OW          32.6770    22.3070    91.6090 OW            1 RES     
    4201 HW1         33.6210    22.1040    91.8680 HW1           1 RES     
    4202 HW2         32.1410    21.4620    91.6150 HW2           1 RES     
    4203 OW          28.6300    32.5280    99.3430 OW            1 RES     
    4204 HW1         29.2980    31.9430    99.8030 HW1           1 RES     
    4205 HW2         28.5140    32.2230    98.3970 HW2           1 RES     
    4206 OW          18.1930    17.4200    93.5280 OW            1 RES     
    4207 HW1         18.5520    16.4880    93.5540 HW1           1 RES     
    4208 HW2         17.2850    17.4170    93.1080 HW2           1 RES     
    4209 OW          10.1390    14.9610    82.7220 OW            1 RES     
    4210 HW1          9.1590    14.7750    82.6610 HW1           1 RES     
    4211 HW2         10.6450    14.0990    82.6840 HW2           1 RES     
    4212 OW          25.3580    16.4990    98.1870 OW            1 RES     
    4213 HW1         24.8430    15.7140    98.5290 HW1           1 RES     
    4214 HW2         24.7270    17.2440    97.9720 HW2           1 RES     
    4215 OW           4.1090     7.0740   100.3640 OW            1 RES     
    4216 HW1          3.4500     7.8250   100.3640 HW1           1 RES     
    4217 HW2          5.0380     7.4450   100.3640 HW2           1 RES     
    4218 OW          36.4080    35.0370    80.9410 OW            1 RES     
    4219 HW1         35.4490    35.0210    80.6600 HW1           1 RES     
    4220 HW2         36.5110    34.5450    81.8060 HW2           1 RES     
    4221 OW          39.0800    16.6050    78.7450 OW            1 RES     
    4222 HW1         39.6570    17.4200    78.6960 HW1           1 RES     
    4223 HW2         38.2540    16.8120    79.2680 HW2           1 RES     
    4224 OW           9.1900    40.2980    81.5480 OW            1 RES     
    4225 HW1          9.3470    39.5780    80.8720 HW1           1 RES     
    4226 HW2          8.4900    40.9270    81.2090 HW2           1 RES     
    4227 OW          34.1410     9.7140   100.2650 OW            1 RES     
    4228 HW1         34.9000     9.0630   100.2410 HW1           1 RES     
    4229 HW2         33.3270     9.2920    99.8670 HW2           1 RES     
    4230 OW          30.6160     9.1450    83.4640 OW            1 RES     
    4231 HW1         31.0850     8.2640    83.4950 HW1           1 RES     
    4232 HW2         31.2910     9.8830    83.4350 HW2           1 RES     
    4233 OW          35.2270    33.8020    93.5630 OW            1 RES     
    4234 HW1         36.1690    33.6520    93.8620 HW1           1 RES     
    4235 HW2         34.9810    33.1150    92.8790 HW2           1 RES     
    4236 OW           2.8380    27.2330    83.9830 OW            1 RES     
    4237 HW1          3.3970    27.5650    84.7420 HW1           1 RES     
    4238 HW2          2.6540    27.9840    83.3490 HW2           1 RES     
    4239 OW          36.8180    25.2490   100.0330 OW            1 RES     
    4240 HW1         36.9300    24.2600    99.9500 HW1           1 RES     
    4241 HW2         37.7170    25.6880   100.0360 HW2           1 RES     
    4242 OW          27.4580    27.0650    91.2930 OW            1 RES     
    4243 HW1         27.9670    27.9240    91.2620 HW1           1 RES     
    4244 HW2         26.5480    27.2020    90.9000 HW2           1 RES     
    4245 OW          18.4430    33.9380    89.2300 OW            1 RES     
    4246 HW1         17.5360    34.3520    89.1600 HW1           1 RES     
    4247 HW2         19.1210    34.6500    89.4170 HW2           1 RES     
    4248 OW          32.9030     6.6060    85.9190 OW            1 RES     
    4249 HW1         33.5770     5.8710    85.8610 HW1           1 RES     
    4250 HW2         31.9920     6.2150    86.0540 HW2           1 RES     
    4251 OW          36.8210     3.0820    85.6760 OW            1 RES     
    4252 HW1         37.6320     2.5000    85.6250 HW1           1 RES     
    4253 HW2         36.0050     2.5110    85.7710 HW2           1 RES     
    4254 OW          40.9130     8.5640    84.3430 OW            1 RES     
    4255 HW1         40.5560     7.6650    84.5950 HW1           1 RES     
    4256 HW2         40.3370     9.2770    84.7430 HW2           1 RES     
    4257 OW          37.1020    31.2410    94.1380 OW            1 RES     
    4258 HW1         37.3450    30.3220    93.8280 HW1           1 RES     
    4259 HW2         37.4720    31.9170    93.5000 HW2           1 RES     
    4260 OW          23.1710     8.7320   100.1470 OW            1 RES     
    4261 HW1         22.5110     9.3180    99.6770 HW1           1 RES     
    4262 HW2         22.7550     7.8410   100.3300 HW2           1 RES     
    4263 OW          24.6230    34.3340    82.6110 OW            1 RES     
    4264 HW1         24.5970    34.6000    81.6480 HW1           1 RES     
    4265 HW2         24.2390    35.0680    83.1710 HW2           1 RES     
    4266 OW          21.6340    27.4770    83.0220 OW            1 RES     
    4267 HW1         21.1390    28.0610    83.6640 HW1           1 RES     
    4268 HW2         21.8870    28.0090    82.2130 HW2           1 RES     
    4269 OW          31.7770    29.9000    86.9590 OW            1 RES     
    4270 HW1         31.4760    30.8530    86.9640 HW1           1 RES     
    4271 HW2         30.9950    29.3030    86.7780 HW2           1 RES     
    4272 OW          33.8130     7.3800    96.4480 OW            1 RES     
    4273 HW1         34.2900     6.5210    96.6310 HW1           1 RES     
    4274 HW2         34.0280     8.0410    97.1670 HW2           1 RES     
    4275 OW          29.5900    30.2490    96.8070 OW            1 RES     
    4276 HW1         29.0940    29.5950    96.2370 HW1           1 RES     
    4277 HW2         30.1930    29.7560    97.4340 HW2           1 RES     
    4278 OW          24.1180    19.7750    92.8260 OW            1 RES     
    4279 HW1         23.1870    20.1350    92.7710 HW1           1 RES     
    4280 HW2         24.3140    19.2290    92.0110 HW2           1 RES     
    4281 OW          20.2580    10.9450    98.5180 OW            1 RES     
    4282 HW1         19.5510    10.5150    99.0790 HW1           1 RES     
    4283 HW2         19.9110    11.8060    98.1450 HW2           1 RES     
    4284 OW          34.5810     3.6170    87.0310 OW            1 RES     
    4285 HW1         33.6420     3.9390    86.9110 HW1           1 RES     
    4286 HW2         34.5720     2.7100    87.4510 HW2           1 RES     
    4287 OW          21.4120    12.8550    84.0540 OW            1 RES     
    4288 HW1         21.7690    11.9220    84.0200 HW1           1 RES     
    4289 HW2         20.4660    12.8630    83.7270 HW2           1 RES     
    4290 OW          13.1200    19.6190    79.6810 OW            1 RES     
    4291 HW1         12.2280    19.8280    79.2810 HW1           1 RES     
    4292 HW2         13.0780    19.7460    80.6730 HW2           1 RES     
    4293 OW          40.3290    35.3390    95.0580 OW            1 RES     
    4294 HW1         39.6700    34.7400    95.5120 HW1           1 RES     
    4295 HW2         40.6850    36.0030    95.7150 HW2           1 RES     
    4296 OW          15.1660     9.4900    80.5950 OW            1 RES     
    4297 HW1         14.5880     9.2170    79.8270 HW1           1 RES     
    4298 HW2         15.7320     8.7150    80.8790 HW2           1 RES     
    4299 OW          33.0560    32.8330    94.4640 OW            1 RES     
    4300 HW1         33.7430    32.1100    94.3950 HW1           1 RES     
    4301 HW2         33.2500    33.4020    95.2630 HW2           1 RES     
    4302 OW           9.3690    31.1430    82.1650 OW            1 RES     
    4303 HW1          8.4160    30.8700    82.2930 HW1           1 RES     
    4304 HW2          9.9370    30.3280    82.0510 HW2           1 RES     
    4305 OW          26.5990    14.4690    86.1420 OW            1 RES     
    4306 HW1         25.9210    14.4450    86.8750 HW1           1 RES     
    4307 HW2         26.4860    13.6670    85.5550 HW2           1 RES     
    4308 OW          38.8870    39.5470    90.1130 OW            1 RES     
    4309 HW1         39.2780    38.8360    90.6970 HW1           1 RES     
    4310 HW2         38.4550    39.1250    89.3170 HW2           1 RES     
    4311 OW          28.5980    40.8590    94.4550 OW            1 RES     
    4312 HW1         27.9410    40.3100    94.9710 HW1           1 RES     
    4313 HW2         29.5170    40.7110    94.8210 HW2           1 RES     
    4314 OW           9.9010    27.4820    88.3400 OW            1 RES     
    4315 HW1          8.9160    27.5700    88.4840 HW1           1 RES     
    4316 HW2         10.1350    26.5180    88.2150 HW2           1 RES     
    4317 OW           3.3860    39.2370    95.0560 OW            1 RES     
    4318 HW1          2.7710    40.0170    95.1740 HW1           1 RES     
    4319 HW2          3.0760    38.4780    95.6280 HW2           1 RES     
    4320 OW           6.5150     4.0290    93.5970 OW            1 RES     
    4321 HW1          6.9690     3.3980    92.9690 HW1           1 RES     
    4322 HW2          5.8530     3.5270    94.1540 HW2           1 RES     
    4323 OW          24.5650    24.9810    99.2530 OW            1 RES     
    4324 HW1         24.2330    24.4170   100.0080 HW1           1 RES     
    4325 HW2         25.5530    24.8610    99.1560 HW2           1 RES     
    4326 OW          40.8010     3.2440    88.0570 OW            1 RES     
    4327 HW1         39.8580     2.9140    88.0190 HW1           1 RES     
    4328 HW2         40.9250     3.8080    88.8730 HW2           1 RES     
    4329 OW          18.5140    10.5350    93.4250 OW            1 RES     
    4330 HW1         17.9180    10.9170    94.1310 HW1           1 RES     
    4331 HW2         18.0730     9.7390    93.0100 HW2           1 RES     
    4332 OW           3.0040    14.1200    82.3000 OW            1 RES     
    4333 HW1          2.5000    14.9790    82.3740 HW1           1 RES     
    4334 HW2          2.5000    13.4860    81.7120 HW2           1 RES     
    4335 OW          36.2750    20.7460    90.8460 OW            1 RES     
    4336 HW1         35.2780    20.7670    90.7750 HW1           1 RES     
    4337 HW2         36.5600    19.8940    91.2870 HW2           1 RES     
    4338 OW          38.2370    20.4470    97.2410 OW            1 RES     
    4339 HW1         37.3240    20.8540    97.2250 HW1           1 RES     
    4340 HW2         38.1670    19.4650    97.0660 HW2           1 RES     
    4341 OW           8.9540     8.5160    86.5150 OW            1 RES     
    4342 HW1          9.8280     8.5010    87.0000 HW1           1 RES     
    4343 HW2          8.3250     7.8660    86.9420 HW2           1 RES     
    4344 OW           9.8070    14.0190    96.8140 OW            1 RES     
    4345 HW1          9.1650    14.6500    96.3780 HW1           1 RES     
    4346 HW2         10.5390    14.5390    97.2540 HW2           1 RES     
    4347 OW          40.2760    15.0360    81.0780 OW            1 RES     
    4348 HW1         39.3230    15.2610    80.8800 HW1           1 RES     
    4349 HW2         40.7750    15.8710    81.3110 HW2           1 RES     
    4350 OW          12.0240    26.2550    81.1250 OW            1 RES     
    4351 HW1         12.4190    26.1280    82.0340 HW1           1 RES     
    4352 HW2         12.6960    25.9970    80.4300 HW2           1 RES     
    4353 OW          22.6270    31.6010    92.8420 OW            1 RES     
    4354 HW1         22.4350    32.5440    93.1100 HW1           1 RES     
    4355 HW2         23.6060    31.4180    92.9400 HW2           1 RES     
    4356 OW           9.7280    12.3500    98.9030 OW            1 RES     
    4357 HW1          9.5130    13.3260    98.8810 HW1           1 RES     
    4358 HW2          9.7800    12.0410    99.8530 HW2           1 RES     
    4359 OW          27.8830    37.7050    92.2300 OW            1 RES     
    4360 HW1         28.6720    38.2900    92.0440 HW1           1 RES     
    4361 HW2         27.8450    36.9700    91.5530 HW2           1 RES     
    4362 OW          29.7640     9.7990    79.8550 OW            1 RES     
    4363 HW1         29.6740     9.6590    80.8410 HW1           1 RES     
    4364 HW2         29.4470    10.7180    79.6180 HW2           1 RES     
    4365 OW          22.6480    17.8000    84.5310 OW            1 RES     
    4366 HW1         22.2790    16.9280    84.8500 HW1           1 RES     
    4367 HW2         22.4890    18.5030    85.2250 HW2           1 RES     
    4368 OW          36.4890    17.1010    93.7540 OW            1 RES     
    4369 HW1         37.1340    16.8070    94.4580 HW1           1 RES     
    4370 HW2         35.8160    17.7220    94.1550 HW2           1 RES     
    4371 OW          35.8980    33.0680    79.4630 OW            1 RES     
    4372 HW1         35.3930    32.6790    78.6930 HW1           1 RES     
    4373 HW2         36.5070    33.7890    79.1320 HW2           1 RES     
    4374 OW          27.2800    20.4240    93.7050 OW            1 RES     
    4375 HW1         26.3440    20.7390    93.8540 HW1           1 RES     
    4376 HW2         27.2950    19.4240    93.6710 HW2           1 RES     
    4377 OW           2.9850    33.2840    80.0160 OW            1 RES     
    4378 HW1          3.5830    33.4960    80.7870 HW1           1 RES     
    4379 HW2          3.5330    32.9490    79.2490 HW2           1 RES     
    4380 OW           8.6150    10.8930    90.9370 OW            1 RES     
    4381 HW1          8.6650    11.0530    89.9520 HW1           1 RES     
    4382 HW2          9.2500    10.1620    91.1880 HW2           1 RES     
    4383 OW          29.5700     3.4770    79.0670 OW            1 RES     
    4384 HW1         30.0420     2.5980    79.1280 HW1           1 RES     
    4385 HW2         28.5890     3.3220    78.9520 HW2           1 RES     
    4386 OW          20.0730    24.4110    80.0180 OW            1 RES     
    4387 HW1         20.8080    23.7910    80.2900 HW1           1 RES     
    4388 HW2         20.1490    24.6110    79.0410 HW2           1 RES     
    4389 OW          10.9160    15.3890    89.3050 OW            1 RES     
    4390 HW1         11.4320    16.0120    89.8920 HW1           1 RES     
    4391 HW2         11.3030    14.4700    89.3710 HW2           1 RES     
    4392 OW           3.4080     9.6020    85.1260 OW            1 RES     
    4393 HW1          3.3680     8.6990    84.7010 HW1           1 RES     
    4394 HW2          4.3050    10.0120    84.9540 HW2           1 RES     
    4395 OW          11.4670    18.0840    82.3550 OW            1 RES     
    4396 HW1         10.9860    17.2530    82.0790 HW1           1 RES     
    4397 HW2         10.8020    18.7920    82.5910 HW2           1 RES     
    4398 OW          11.5180    37.6430    78.8740 OW            1 RES     
    4399 HW1         10.8470    37.8550    79.5830 HW1           1 RES     
    4400 HW2         12.1020    36.8910    79.1810 HW2           1 RES     
    4401 OW           9.6050    29.6550    88.1400 OW            1 RES     
    4402 HW1          9.3810    29.3150    87.2280 HW1           1 RES     
    4403 HW2         10.5970    29.6400    88.2680 HW2           1 RES     
    4404 OW          24.3710    34.1930    95.4920 OW            1 RES     
    4405 HW1         23.8360    34.9970    95.7450 HW1           1 RES     
    4406 HW2         25.3380    34.4410    95.4290 HW2           1 RES     
    4407 OW          31.7420    34.2270    97.9490 OW            1 RES     
    4408 HW1         32.1620    34.0630    97.0580 HW1           1 RES     
    4409 HW2         30.7710    33.9930    97.9090 HW2           1 RES     
    4410 OW          32.9120     4.5340    82.3460 OW            1 RES     
    4411 HW1         32.0450     4.9240    82.6550 HW1           1 RES     
    4412 HW2         33.1460     4.9110    81.4500 HW2           1 RES     
    4413 OW          24.3170     7.9800    98.2640 OW            1 RES     
    4414 HW1         24.3010     7.1120    98.7590 HW1           1 RES     
    4415 HW2         23.8930     7.8590    97.3660 HW2           1 RES     
    4416 OW          35.4060    29.9580    92.3690 OW            1 RES     
    4417 HW1         35.7510    30.8940    92.4240 HW1           1 RES     
    4418 HW2         36.0810    29.3800    91.9100 HW2           1 RES     
    4419 OW          37.2040     7.8530   100.1650 OW            1 RES     
    4420 HW1         36.3230     7.3860   100.2340 HW1           1 RES     
    4421 HW2         37.0830     8.8250   100.3640 HW2           1 RES     
    4422 OW          12.0920     3.0040    87.6610 OW            1 RES     
    4423 HW1         11.2580     2.5000    87.8840 HW1           1 RES     
    4424 HW2         12.8870     2.5000    88.0000 HW2           1 RES     
    4425 OW          22.9290     9.0590    87.3020 OW            1 RES     
    4426 HW1         22.5140     9.8060    86.7830 HW1           1 RES     
    4427 HW2         23.7270     9.4010    87.7980 HW2           1 RES     
    4428 OW          26.4940     7.4870    99.9820 OW            1 RES     
    4429 HW1         25.7900     6.8890   100.3640 HW1           1 RES     
    4430 HW2         26.0620     8.2880    99.5670 HW2           1 RES     
    4431 OW           8.6560     3.9690    84.3090 OW            1 RES     
    4432 HW1          8.7210     2.9810    84.4440 HW1           1 RES     
    4433 HW2          7.6950     4.2440    84.3100 HW2           1 RES     
    4434 OW          10.6040    11.2100    87.6080 OW            1 RES     
    4435 HW1         10.0260    11.6130    88.3160 HW1           1 RES     
    4436 HW2         10.8250    10.2660    87.8540 HW2           1 RES     
    4437 OW          26.6930    37.1690    97.7370 OW            1 RES     
    4438 HW1         25.7260    37.3260    97.5400 HW1           1 RES     
    4439 HW2         27.1130    38.0210    98.0510 HW2           1 RES     
    4440 OW           8.6060    33.4960    95.6810 OW            1 RES     
    4441 HW1          8.3750    32.8840    94.9260 HW1           1 RES     
    4442 HW2          9.5290    33.8560    95.5480 HW2           1 RES     
    4443 OW           8.3990    13.1640    89.3900 OW            1 RES     
    4444 HW1          9.3570    13.4460    89.3380 HW1           1 RES     
    4445 HW2          7.8410    13.9330    89.7030 HW2           1 RES     
    4446 OW          28.1530     3.2670    98.6320 OW            1 RES     
    4447 HW1         28.8320     2.9250    97.9840 HW1           1 RES     
    4448 HW2         27.7600     2.5000    99.1400 HW2           1 RES     
    4449 OW          24.8880     5.4630    90.7410 OW            1 RES     
    4450 HW1         25.2100     4.5240    90.6250 HW1           1 RES     
    4451 HW2         23.8880     5.4760    90.7340 HW2           1 RES     
    4452 OW          35.6800    29.1360    95.9350 OW            1 RES     
    4453 HW1         35.2400    29.5630    95.1460 HW1           1 RES     
    4454 HW2         36.5530    29.5900    96.1160 HW2           1 RES     
    4455 OW          14.6060    35.1800    92.9610 OW            1 RES     
    4456 HW1         13.6890    34.8770    93.2180 HW1           1 RES     
    4457 HW2         14.9170    35.8840    93.6000 HW2           1 RES     
    4458 OW           9.5420    38.1900    99.2050 OW            1 RES     
    4459 HW1          8.7360    38.2210    99.7950 HW1           1 RES     
    4460 HW2          9.9540    39.1000    99.1530 HW2           1 RES     
    4461 OW          14.3180    17.5370    86.5770 OW            1 RES     
    4462 HW1         13.4720    17.8720    86.1620 HW1           1 RES     
    4463 HW2         14.6880    16.7910    86.0240 HW2           1 RES     
    4464 OW          34.6860    11.5100    95.7790 OW            1 RES     
    4465 HW1         34.2150    10.6310    95.7060 HW1           1 RES     
    4466 HW2         34.1260    12.1460    96.3100 HW2           1 RES     
    4467 OW          17.0560    21.8620    84.6670 OW            1 RES     
    4468 HW1         17.0420    21.6980    83.6820 HW1           1 RES     
    4469 HW2         17.3440    22.8030    84.8460 HW2           1 RES     
    4470 OW          38.0130    14.8560    92.8640 OW            1 RES     
    4471 HW1         37.1620    14.7810    93.3830 HW1           1 RES     
    4472 HW2         38.0890    14.0830    92.2350 HW2           1 RES     
    4473 OW          11.5140    32.4390    81.5380 OW            1 RES     
    4474 HW1         11.4350    31.9050    82.3790 HW1           1 RES     
    4475 HW2         11.1720    31.9010    80.7670 HW2           1 RES     
    4476 OW          11.2760    34.2100   100.3640 OW            1 RES     
    4477 HW1         12.1730    33.7690   100.3510 HW1           1 RES     
    4478 HW2         10.5620    33.5140   100.2860 HW2           1 RES     
    4479 OW          20.1920    40.9270    95.7280 OW            1 RES     
    4480 HW1         19.8660    40.7350    94.8030 HW1           1 RES     
    4481 HW2         20.3870    40.0660    96.1980 HW2           1 RES     
    4482 OW          26.4850    33.2650    84.7750 OW            1 RES     
    4483 HW1         26.0420    32.7000    85.4700 HW1           1 RES     
    4484 HW2         26.4200    32.8130    83.8850 HW2           1 RES     
    4485 OW          22.2210    10.7290    92.7350 OW            1 RES     
    4486 HW1         22.7650    11.5650    92.6790 HW1           1 RES     
    4487 HW2         22.8300     9.9400    92.8230 HW2           1 RES     
    4488 OW           4.0190    12.8370    92.8080 OW            1 RES     
    4489 HW1          3.1080    13.0340    92.4460 HW1           1 RES     
    4490 HW2          4.6220    13.6170    92.6370 HW2           1 RES     
    4491 OW          27.6130    20.2010    96.2320 OW            1 RES     
    4492 HW1         27.0390    20.9610    95.9290 HW1           1 RES     
    4493 HW2         27.2510    19.3420    95.8680 HW2           1 RES     
    4494 OW          18.1100    16.4890    83.9980 OW            1 RES     
    4495 HW1         18.8500    17.0910    83.7010 HW1           1 RES     
    4496 HW2         17.2570    16.7660    83.5560 HW2           1 RES     
    4497 OW          23.8220    10.1740    90.5030 OW            1 RES     
    4498 HW1         23.1620     9.4270    90.4160 HW1           1 RES     
    4499 HW2         23.3330    11.0390    90.6200 HW2           1 RES     
    4500 OW          23.9770     5.0720    86.3180 OW            1 RES     
    4501 HW1         23.3700     4.3100    86.0960 HW1           1 RES     
    4502 HW2         24.8920     4.7220    86.5210 HW2           1 RES     
    4503 OW          14.0640    21.6050    79.7720 OW            1 RES     
    4504 HW1         13.8630    21.4970    78.7990 HW1           1 RES     
    4505 HW2         13.4180    22.2520    80.1770 HW2           1 RES     
    4506 OW           7.5670    16.8270    78.7010 OW            1 RES     
    4507 HW1          6.5700    16.8360    78.7730 HW1           1 RES     
    4508 HW2          7.9100    17.7670    78.6950 HW2           1 RES     
    4509 OW           5.5200    23.7670    87.0730 OW            1 RES     
    4510 HW1          4.9480    24.5040    87.4320 HW1           1 RES     
    4511 HW2          5.8640    24.0210    86.1690 HW2           1 RES     
    4512 OW          38.3120    19.3590    78.7130 OW            1 RES     
    4513 HW1         37.3370    19.1430    78.6930 HW1           1 RES     
    4514 HW2         38.4700    20.1330    79.3260 HW2           1 RES     
    4515 OW          37.0980    34.0680    85.2430 OW            1 RES     
    4516 HW1         37.2360    34.8340    84.6160 HW1           1 RES     
    4517 HW2         36.4220    34.3200    85.9360 HW2           1 RES     
    4518 OW          14.8000     5.8250    93.8480 OW            1 RES     
    4519 HW1         15.1870     6.4820    94.4940 HW1           1 RES     
    4520 HW2         15.2590     4.9430    93.9540 HW2           1 RES     
    4521 OW          12.1780    32.7920    91.2780 OW            1 RES     
    4522 HW1         13.0970    33.1580    91.1310 HW1           1 RES     
    4523 HW2         12.0740    31.9360    90.7710 HW2           1 RES     
    4524 OW          33.5990    24.4060    90.4000 OW            1 RES     
    4525 HW1         34.4570    24.5160    89.8990 HW1           1 RES     
    4526 HW2         32.8360    24.3780    89.7540 HW2           1 RES     
    4527 OW          23.6400     4.6880    97.0020 OW            1 RES     
    4528 HW1         22.8050     4.1710    96.8150 HW1           1 RES     
    4529 HW2         23.4510     5.6670    96.9230 HW2           1 RES     
    4530 OW          12.5460    16.2350    95.4690 OW            1 RES     
    4531 HW1         11.8330    15.8750    96.0690 HW1           1 RES     
    4532 HW2         12.2440    17.1040    95.0760 HW2           1 RES     
    4533 OW          21.9850    24.6100    90.7680 OW            1 RES     
    4534 HW1         21.5770    23.7140    90.5970 HW1           1 RES     
    4535 HW2         22.2350    25.0350    89.8980 HW2           1 RES     
    4536 OW          36.8710    24.3250    93.6880 OW            1 RES     
    4537 HW1         36.1860    23.6020    93.5970 HW1           1 RES     
    4538 HW2         37.5540    24.2310    92.9640 HW2           1 RES     
    4539 OW           3.1660    35.5150    97.6900 OW            1 RES     
    4540 HW1          2.7190    36.4090    97.6890 HW1           1 RES     
    4541 HW2          4.1500    35.6340    97.5530 HW2           1 RES     
    4542 OW           9.3540    20.9830    81.7140 OW            1 RES     
    4543 HW1          9.3150    20.4140    82.5340 HW1           1 RES     
    4544 HW2          9.9410    20.5470    81.0310 HW2           1 RES     
    4545 OW          17.5700    33.8450    92.9410 OW            1 RES     
    4546 HW1         16.7850    33.2320    92.8540 HW1           1 RES     
    4547 HW2         17.4420    34.6390    92.3460 HW2           1 RES     
    4548 OW          25.9010    15.0620    79.5130 OW            1 RES     
    4549 HW1         25.0200    15.0440    79.0420 HW1           1 RES     
    4550 HW2         26.3480    15.9420    79.3510 HW2           1 RES     
    4551 OW          20.3830    34.8810    93.4710 OW            1 RES     
    4552 HW1         20.8030    33.9740    93.4750 HW1           1 RES     
    4553 HW2         19.5580    34.8640    92.9050 HW2           1 RES     
    4554 OW          12.3540    20.0370   100.3430 OW            1 RES     
    4555 HW1         12.7240    20.1450    99.4210 HW1           1 RES     
    4556 HW2         11.4090    20.3650   100.3640 HW2           1 RES     
    4557 OW          13.2680    18.0260   100.2710 OW            1 RES     
    4558 HW1         13.8490    17.2200   100.1610 HW1           1 RES     
    4559 HW2         12.3140    17.7400   100.3640 HW2           1 RES     
    4560 OW           6.2670    36.6890    92.0700 OW            1 RES     
    4561 HW1          6.9590    35.9850    91.9090 HW1           1 RES     
    4562 HW2          6.7080    37.5860    92.1160 HW2           1 RES     
    4563 OW           7.6140    35.7400    80.9730 OW            1 RES     
    4564 HW1          8.4700    35.2260    80.9190 HW1           1 RES     
    4565 HW2          6.8420    35.1150    80.8570 HW2           1 RES     
    4566 OW          24.3810    13.3470    91.3010 OW            1 RES     
    4567 HW1         23.4040    13.1400    91.2660 HW1           1 RES     
    4568 HW2         24.7380    13.4330    90.3710 HW2           1 RES     
    4569 OW           8.7250    25.1270    99.4030 OW            1 RES     
    4570 HW1          8.1320    24.3290    99.3000 HW1           1 RES     
    4571 HW2          8.9880    25.2250   100.3630 HW2           1 RES     
    4572 OW          20.1870    12.3520    81.6060 OW            1 RES     
    4573 HW1         19.3740    12.7640    81.1960 HW1           1 RES     
    4574 HW2         20.1740    11.3630    81.4520 HW2           1 RES     
    4575 OW          22.2880     6.5970    87.9630 OW            1 RES     
    4576 HW1         21.9120     7.0240    87.1410 HW1           1 RES     
    4577 HW2         21.9510     5.6580    88.0350 HW2           1 RES     
    4578 OW          37.1160     3.8820    99.5930 OW            1 RES     
    4579 HW1         36.1580     3.5980    99.6130 HW1           1 RES     
    4580 HW2         37.7050     3.0760    99.6510 HW2           1 RES     
    4581 OW           3.6820    15.8350    79.2920 OW            1 RES     
    4582 HW1          3.8690    16.4510    80.0570 HW1           1 RES     
    4583 HW2          4.4870    15.7820    78.7010 HW2           1 RES     
    4584 OW          39.3220    33.4400    93.6580 OW            1 RES     
    4585 HW1         40.2190    33.6580    93.2750 HW1           1 RES     
    4586 HW2         38.6930    34.1990    93.4890 HW2           1 RES     
    4587 OW          40.1110    34.2780    88.1910 OW            1 RES     
    4588 HW1         40.9270    33.7830    88.4880 HW1           1 RES     
    4589 HW2         40.3340    35.2450    88.0660 HW2           1 RES     
    4590 OW          32.4470    13.3130    85.0700 OW            1 RES     
    4591 HW1         31.7170    13.1750    85.7370 HW1           1 RES     
    4592 HW2         32.2110    12.8520    84.2140 HW2           1 RES     
    4593 OW          18.3750    30.4060    84.0340 OW            1 RES     
    4594 HW1         18.0570    29.5650    83.5990 HW1           1 RES     
    4595 HW2         18.7310    31.0280    83.3370 HW2           1 RES     
    4596 OW          29.4870    23.0960    80.9750 OW            1 RES     
    4597 HW1         28.6210    22.6050    81.0570 HW1           1 RES     
    4598 HW2         29.9030    23.1940    81.8790 HW2           1 RES     
    4599 OW           7.9950    39.8900    83.9900 OW            1 RES     
    4600 HW1          8.1110    39.3050    83.1880 HW1           1 RES     
    4601 HW2          8.7730    40.5140    84.0640 HW2           1 RES     
    4602 OW          22.2240    31.5070    90.6780 OW            1 RES     
    4603 HW1         22.8870    32.2300    90.4880 HW1           1 RES     
    4604 HW2         22.7060    30.6470    90.8480 HW2           1 RES     
    4605 OW           9.4600    36.1510    97.0520 OW            1 RES     
    4606 HW1          9.7960    35.9610    96.1300 HW1           1 RES     
    4607 HW2          9.6910    37.0910    97.3050 HW2           1 RES     
    4608 OW           2.5020    36.3370    83.1310 OW            1 RES     
    4609 HW1          3.4150    36.1850    82.7540 HW1           1 RES     
    4610 HW2          2.5650    36.9400    83.9260 HW2           1 RES     
    4611 OW          17.0960     8.4960    88.5860 OW            1 RES     
    4612 HW1         16.1100     8.3350    88.5540 HW1           1 RES     
    4613 HW2         17.4850     8.3670    87.6730 HW2           1 RES     
    4614 OW          40.9250    14.1610    92.5800 OW            1 RES     
    4615 HW1         40.4340    14.7650    93.2070 HW1           1 RES     
    4616 HW2         40.4270    13.2970    92.4910 HW2           1 RES     
    4617 OW           5.8850    29.9890    91.8880 OW            1 RES     
    4618 HW1          5.0810    29.4410    92.1190 HW1           1 RES     
    4619 HW2          6.3000    29.6360    91.0500 HW2           1 RES     
    4620 OW          24.3420    10.9100    82.1310 OW            1 RES     
    4621 HW1         23.4580    11.3630    82.0250 HW1           1 RES     
    4622 HW2         24.2180     9.9180    82.0810 HW2           1 RES     
    4623 OW          13.0930    17.4840    80.7900 OW            1 RES     
    4624 HW1         12.2360    17.7110    80.3270 HW1           1 RES     
    4625 HW2         13.2290    16.4930    80.7730 HW2           1 RES     
    4626 OW           7.1000    40.3510    91.0460 OW            1 RES     
    4627 HW1          7.9110    40.9270    91.1420 HW1           1 RES     
    4628 HW2          6.2970    40.9260    90.8890 HW2           1 RES     
    4629 OW          29.0110    13.7520    86.5970 OW            1 RES     
    4630 HW1         29.8340    13.3920    87.0350 HW1           1 RES     
    4631 HW2         28.2350    13.1550    86.8020 HW2           1 RES     
    4632 OW          11.3990    23.7300   100.0070 OW            1 RES     
    4633 HW1         10.9280    24.4940    99.5670 HW1           1 RES     
    4634 HW2         12.2800    24.0420   100.3640 HW2           1 RES     
    4635 OW          22.9830    29.9920    95.4980 OW            1 RES     
    4636 HW1         23.5100    29.7950    94.6730 HW1           1 RES     
    4637 HW2         23.0930    29.2430    96.1520 HW2           1 RES     
    4638 OW          19.9860     3.0690    92.3490 OW            1 RES     
    4639 HW1         19.1310     3.4380    92.7130 HW1           1 RES     
    4640 HW2         20.4260     2.5000    93.0450 HW2           1 RES     
    4641 OW          28.2180    23.5080    95.6720 OW            1 RES     
    4642 HW1         27.3100    23.4630    95.2580 HW1           1 RES     
    4643 HW2         28.5220    22.5850    95.9110 HW2           1 RES     
    4644 OW           9.7690     6.6550    93.4540 OW            1 RES     
    4645 HW1         10.5540     7.0730    93.9090 HW1           1 RES     
    4646 HW2          9.0440     6.4880    94.1230 HW2           1 RES     
    4647 OW          17.1820     4.1460    94.6650 OW            1 RES     
    4648 HW1         17.2000     4.8210    95.4020 HW1           1 RES     
    4649 HW2         17.4240     4.5880    93.8010 HW2           1 RES     
    4650 OW          25.4720    31.0000    89.2730 OW            1 RES     
    4651 HW1         24.9360    31.5180    89.9380 HW1           1 RES     
    4652 HW2         26.4410    31.0420    89.5200 HW2           1 RES     
    4653 OW          25.1420    26.1210    95.4870 OW            1 RES     
    4654 HW1         25.1610    25.6020    96.3410 HW1           1 RES     
    4655 HW2         24.2270    26.4980    95.3450 HW2           1 RES     
    4656 OW          19.3090    33.6150    82.4720 OW            1 RES     
    4657 HW1         19.9310    33.1210    81.8650 HW1           1 RES     
    4658 HW2         18.6760    34.1650    81.9260 HW2           1 RES     
    4659 OW          17.3930    36.2530    99.5480 OW            1 RES     
    4660 HW1         16.9140    35.9250   100.3610 HW1           1 RES     
    4661 HW2         18.3600    36.3910    99.7630 HW2           1 RES     
    4662 OW          39.6600    11.0400    82.9650 OW            1 RES     
    4663 HW1         39.3630    10.0860    82.9440 HW1           1 RES     
    4664 HW2         40.6200    11.0970    82.6900 HW2           1 RES     
    4665 OW          11.1350     9.6680   100.1360 OW            1 RES     
    4666 HW1         11.1720     9.0710    99.3350 HW1           1 RES     
    4667 HW2         10.1800     9.8600   100.3640 HW2           1 RES     
    4668 OW          39.8930    27.8640    99.2930 OW            1 RES     
    4669 HW1         39.7280    26.9070    99.5280 HW1           1 RES     
    4670 HW2         40.8770    28.0200    99.2000 HW2           1 RES     
    4671 OW          11.3290    36.7730    89.8130 OW            1 RES     
    4672 HW1         11.8840    36.0210    89.4580 HW1           1 RES     
    4673 HW2         11.2410    37.4820    89.1140 HW2           1 RES     
    4674 OW          24.3940     6.2390    95.0110 OW            1 RES     
    4675 HW1         24.0230     5.8590    94.1650 HW1           1 RES     
    4676 HW2         23.9650     7.1230    95.1970 HW2           1 RES     
    4677 OW           8.4440    18.0990   100.0130 OW            1 RES     
    4678 HW1          9.3580    18.4510    99.8180 HW1           1 RES     
    4679 HW2          7.9620    17.9280    99.1530 HW2           1 RES     
    4680 OW          29.9430    12.1220    94.8990 OW            1 RES     
    4681 HW1         29.8220    11.1320    94.9640 HW1           1 RES     
    4682 HW2         29.2640    12.5000    94.2690 HW2           1 RES     
    4683 OW          14.5850    31.4160    85.9650 OW            1 RES     
    4684 HW1         13.8770    30.7840    86.2770 HW1           1 RES     
    4685 HW2         14.4510    32.3080    86.3980 HW2           1 RES     
    4686 OW          17.1870     5.7980    88.8200 OW            1 RES     
    4687 HW1         16.8310     5.8910    87.8910 HW1           1 RES     
    4688 HW2         16.4430     5.9170    89.4770 HW2           1 RES     
    4689 OW          37.9990     4.8570    89.4550 OW            1 RES     
    4690 HW1         38.9670     4.7510    89.2280 HW1           1 RES     
    4691 HW2         37.8090     5.8170    89.6640 HW2           1 RES     
    4692 OW           5.2230    23.4660    81.3900 OW            1 RES     
    4693 HW1          5.9010    24.1090    81.0370 HW1           1 RES     
    4694 HW2          4.3850    23.9590    81.6230 HW2           1 RES     
    4695 OW          30.0630    34.6270    89.9930 OW            1 RES     
    4696 HW1         30.8020    34.7990    90.6440 HW1           1 RES     
    4697 HW2         29.6350    33.7470    90.1980 HW2           1 RES     
    4698 OW          16.0270    39.3610    82.5270 OW            1 RES     
    4699 HW1         15.1910    38.8570    82.7390 HW1           1 RES     
    4700 HW2         16.2650    39.9520    83.2980 HW2           1 RES     
    4701 OW          27.8210    21.3450    88.4580 OW            1 RES     
    4702 HW1         27.6510    20.7220    89.2200 HW1           1 RES     
    4703 HW2         26.9990    21.8840    88.2770 HW2           1 RES     
    4704 OW           7.6140    16.3410    82.6540 OW            1 RES     
    4705 HW1          7.2400    15.6570    82.0290 HW1           1 RES     
    4706 HW2          7.3700    16.1040    83.5940 HW2           1 RES     
    4707 OW          25.8540    22.1540    83.4700 OW            1 RES     
    4708 HW1         25.1040    22.6860    83.8630 HW1           1 RES     
    4709 HW2         26.3480    21.6830    84.2020 HW2           1 RES     
    4710 OW          36.7330    28.1330    93.7930 OW            1 RES     
    4711 HW1         37.3890    27.3810    93.7300 HW1           1 RES     
    4712 HW2         35.8050    27.7750    93.6950 HW2           1 RES     
    4713 OW           2.5020    32.7750    90.5080 OW            1 RES     
    4714 HW1          2.6400    33.6750    90.9210 HW1           1 RES     
    4715 HW2          2.7330    32.8140    89.5360 HW2           1 RES     
    4716 OW           7.5010    18.4510    88.7010 OW            1 RES     
    4717 HW1          8.4350    18.7790    88.5610 HW1           1 RES     
    4718 HW2          7.5060    17.4540    88.7830 HW2           1 RES     
    4719 OW           9.7010     3.7600    92.5500 OW            1 RES     
    4720 HW1          9.3590     4.5230    93.0960 HW1           1 RES     
    4721 HW2         10.4290     4.0820    91.9450 HW2           1 RES     
    4722 OW          40.9100    11.8590    86.8520 OW            1 RES     
    4723 HW1         40.9090    11.6400    85.8770 HW1           1 RES     
    4724 HW2         40.0160    11.6420    87.2440 HW2           1 RES     
    4725 OW          37.4620    23.0640    97.2410 OW            1 RES     
    4726 HW1         36.7220    23.6680    97.5360 HW1           1 RES     
    4727 HW2         38.3390    23.4380    97.5450 HW2           1 RES     
    4728 OW          33.1720    30.3970    92.0620 OW            1 RES     
    4729 HW1         33.1490    30.4660    93.0590 HW1           1 RES     
    4730 HW2         33.6960    31.1620    91.6870 HW2           1 RES     
    4731 OW           6.6960    15.5110    86.2180 OW            1 RES     
    4732 HW1          7.1320    15.8950    87.0320 HW1           1 RES     
    4733 HW2          6.0250    14.8220    86.4920 HW2           1 RES     
    4734 OW           5.6320    32.2320    79.3410 OW            1 RES     
    4735 HW1          5.9700    31.8450    80.1980 HW1           1 RES     
    4736 HW2          5.3750    31.4920    78.7190 HW2           1 RES     
    4737 OW          32.6830    29.3380    97.0290 OW            1 RES     
    4738 HW1         32.4090    29.8620    97.8350 HW1           1 RES     
    4739 HW2         33.2750    29.8990    96.4510 HW2           1 RES     
    4740 OW          24.1870    23.2470    91.1670 OW            1 RES     
    4741 HW1         23.3800    23.2180    91.7560 HW1           1 RES     
    4742 HW2         24.0660    23.9530    90.4690 HW2           1 RES     
    4743 OW          26.4380    17.1820    81.8980 OW            1 RES     
    4744 HW1         26.6830    16.2400    81.6740 HW1           1 RES     
    4745 HW2         26.6880    17.3760    82.8470 HW2           1 RES     
    4746 OW          31.9700    11.9470    99.9050 OW            1 RES     
    4747 HW1         31.2170    11.4670   100.3530 HW1           1 RES     
    4748 HW2         32.8300    11.7210   100.3630 HW2           1 RES     
    4749 OW           4.5940    33.4960    97.8200 OW            1 RES     
    4750 HW1          3.6310    33.3330    97.6060 HW1           1 RES     
    4751 HW2          4.9500    32.7320    98.3590 HW2           1 RES     
    4752 OW          40.2070    15.4050    84.4940 OW            1 RES     
    4753 HW1         40.3300    15.7410    83.5600 HW1           1 RES     
    4754 HW2         39.9350    14.4430    84.4690 HW2           1 RES     
    4755 OW          19.4590     2.5030    80.4460 OW            1 RES     
    4756 HW1         19.2000     2.5820    79.4840 HW1           1 RES     
    4757 HW2         20.3540     2.9270    80.5860 HW2           1 RES     
    4758 OW          21.1970     4.8060    84.4460 OW            1 RES     
    4759 HW1         20.2530     5.1320    84.4610 HW1           1 RES     
    4760 HW2         21.6710     5.1920    83.6540 HW2           1 RES     
    4761 OW           5.9910    31.4310    99.7960 OW            1 RES     
    4762 HW1          6.9640    31.2220    99.8870 HW1           1 RES     
    4763 HW2          5.7690    32.2330   100.3500 HW2           1 RES     
    4764 OW          35.2170     6.8680    82.3840 OW            1 RES     
    4765 HW1         35.9980     7.2520    81.8930 HW1           1 RES     
    4766 HW2         35.1850     5.8790    82.2390 HW2           1 RES     
    4767 OW           9.9410    15.9430    93.8340 OW            1 RES     
    4768 HW1         10.9030    16.1240    93.6330 HW1           1 RES     
    4769 HW2          9.6970    16.3640    94.7080 HW2           1 RES     
    4770 OW           3.1450     6.0100    90.7130 OW            1 RES     
    4771 HW1          4.0760     5.9150    91.0630 HW1           1 RES     
    4772 HW2          3.1760     6.2860    89.7520 HW2           1 RES     
    4773 OW           9.5780    28.4220    98.1480 OW            1 RES     
    4774 HW1          8.6220    28.1830    97.9850 HW1           1 RES     
    4775 HW2         10.1700    27.7100    97.7680 HW2           1 RES     
    4776 OW          35.0100    34.1810    96.3480 OW            1 RES     
    4777 HW1         35.9090    34.4680    96.0170 HW1           1 RES     
    4778 HW2         35.1230    33.4930    97.0650 HW2           1 RES     
    4779 OW          35.1750    22.2530    83.5210 OW            1 RES     
    4780 HW1         34.7230    21.3620    83.5090 HW1           1 RES     
    4781 HW2         35.8740    22.2630    84.2370 HW2           1 RES     
    4782 OW           4.6000    36.4340    84.5910 OW            1 RES     
    4783 HW1          4.8520    35.4900    84.3770 HW1           1 RES     
    4784 HW2          5.3660    36.8890    85.0460 HW2           1 RES     
    4785 OW          29.6290    40.7290    84.9980 OW            1 RES     
    4786 HW1         28.6360    40.6240    85.0250 HW1           1 RES     
    4787 HW2         30.0580    39.8300    84.9150 HW2           1 RES     
    4788 OW          22.6730    33.5160    81.7830 OW            1 RES     
    4789 HW1         22.3720    34.3380    82.2650 HW1           1 RES     
    4790 HW2         22.9290    32.8140    82.4480 HW2           1 RES     
    4791 OW          34.1470    17.8840    81.9040 OW            1 RES     
    4792 HW1         33.5480    17.1260    82.1610 HW1           1 RES     
    4793 HW2         34.9640    17.5260    81.4530 HW2           1 RES     
    4794 OW          18.7720    28.5710    89.8010 OW            1 RES     
    4795 HW1         19.6340    28.2280    90.1730 HW1           1 RES     
    4796 HW2         18.0810    27.8490    89.8400 HW2           1 RES     
    4797 OW           8.6040    40.5320   100.1370 OW            1 RES     
    4798 HW1          8.5550    40.9230    99.2180 HW1           1 RES     
    4799 HW2          7.7320    40.0970   100.3610 HW2           1 RES     
    4800 OW          33.5360    27.4970    91.8060 OW            1 RES     
    4801 HW1         34.5320    27.5080    91.8900 HW1           1 RES     
    4802 HW2         33.1860    26.6070    92.1000 HW2           1 RES     
    4803 OW          11.8330    10.6720    82.3660 OW            1 RES     
    4804 HW1         12.8030    10.5430    82.5670 HW1           1 RES     
    4805 HW2         11.2880    10.0720    82.9510 HW2           1 RES     
    4806 OW          33.5990    12.8800    81.3400 OW            1 RES     
    4807 HW1         33.1260    12.9700    80.4640 HW1           1 RES     
    4808 HW2         33.0740    13.3470    82.0520 HW2           1 RES     
    4809 OW          37.1500    12.2170    87.6480 OW            1 RES     
    4810 HW1         37.5540    13.0950    87.3900 HW1           1 RES     
    4811 HW2         37.8680    11.5230    87.7060 HW2           1 RES     
    4812 OW           2.6700    28.5490    95.6000 OW            1 RES     
    4813 HW1          3.3660    27.8860    95.8760 HW1           1 RES     
    4814 HW2          2.5080    28.4720    94.6160 HW2           1 RES     
    4815 OW          29.3390    10.6940    88.0970 OW            1 RES     
    4816 HW1         28.8460     9.8610    88.3440 HW1           1 RES     
    4817 HW2         28.7160    11.4760    88.1400 HW2           1 RES     
    4818 OW           2.5000    20.0070    93.7140 OW            1 RES     
    4819 HW1          2.6230    20.9950    93.8000 HW1           1 RES     
    4820 HW2          3.3940    19.5650    93.6300 HW2           1 RES     
    4821 OW          16.7950    14.2620    82.6630 OW            1 RES     
    4822 HW1         16.2320    14.3240    81.8400 HW1           1 RES     
    4823 HW2         17.1790    13.3410    82.7360 HW2           1 RES     
    4824 OW          22.4660    35.3520    87.8740 OW            1 RES     
    4825 HW1         23.0620    34.5550    87.9700 HW1           1 RES     
    4826 HW2         23.0240    36.1720    87.7410 HW2           1 RES     
    4827 OW          40.9250    40.6230    92.1640 OW            1 RES     
    4828 HW1         40.9270    39.6600    91.8980 HW1           1 RES     
    4829 HW2         39.9840    40.9270    92.3110 HW2           1 RES     
    4830 OW          19.8530    24.2320    82.7290 OW            1 RES     
    4831 HW1         20.2220    24.9550    82.1460 HW1           1 RES     
    4832 HW2         19.9350    23.3510    82.2610 HW2           1 RES     
    4833 OW          21.8030     7.0660    94.7920 OW            1 RES     
    4834 HW1         21.9680     8.0300    95.0000 HW1           1 RES     
    4835 HW2         21.8920     6.5240    95.6280 HW2           1 RES     
    4836 OW           9.3910     8.9050    89.3790 OW            1 RES     
    4837 HW1         10.0770     8.2110    89.1660 HW1           1 RES     
    4838 HW2          8.6420     8.4890    89.8950 HW2           1 RES     
    4839 OW          22.7240    34.2820    85.2830 OW            1 RES     
    4840 HW1         23.2610    33.7470    85.9340 HW1           1 RES     
    4841 HW2         22.7980    33.8730    84.3730 HW2           1 RES     
    4842 OW          16.8750    27.2150    92.0320 OW            1 RES     
    4843 HW1         17.8720    27.1450    92.0110 HW1           1 RES     
    4844 HW2         16.6080    28.1780    92.0650 HW2           1 RES     
    4845 OW          10.5240    28.9320    80.4550 OW            1 RES     
    4846 HW1         11.0410    29.7520    80.2100 HW1           1 RES     
    4847 HW2          9.5620    29.0600    80.2130 HW2           1 RES     
    4848 OW          35.1290    27.1100    86.0370 OW            1 RES     
    4849 HW1         34.3720    26.4580    86.0050 HW1           1 RES     
    4850 HW2         34.7660    28.0420    86.0390 HW2           1 RES     
    4851 OW           5.9640     9.6070    80.5680 OW            1 RES     
    4852 HW1          6.1740     9.1200    81.4150 HW1           1 RES     
    4853 HW2          6.6240     9.3500    79.8620 HW2           1 RES     
    4854 OW          40.1870     4.6180    94.0770 OW            1 RES     
    4855 HW1         39.1980     4.7610    94.0720 HW1           1 RES     
    4856 HW2         40.3830     3.6460    94.2020 HW2           1 RES     
    4857 OW          30.2780    18.6350    96.6460 OW            1 RES     
    4858 HW1         29.9240    17.9150    97.2430 HW1           1 RES     
    4859 HW2         29.6230    19.3910    96.6110 HW2           1 RES     
    4860 OW          31.8890    30.3100    90.2750 OW            1 RES     
    4861 HW1         32.3370    29.4300    90.1190 HW1           1 RES     
    4862 HW2         31.2040    30.2130    90.9970 HW2           1 RES     
    4863 OW          35.5690    15.2490    80.0900 OW            1 RES     
    4864 HW1         35.9160    16.1670    79.9020 HW1           1 RES     
    4865 HW2         34.7670    15.3110    80.6850 HW2           1 RES     
    4866 OW          14.2690    35.0020    84.5960 OW            1 RES     
    4867 HW1         14.6610    34.3630    85.2570 HW1           1 RES     
    4868 HW2         13.3960    35.3470    84.9410 HW2           1 RES     
    4869 OW          27.9690    25.2460    88.1370 OW            1 RES     
    4870 HW1         28.6600    24.5680    88.3840 HW1           1 RES     
    4871 HW2         28.3350    25.8550    87.4320 HW2           1 RES     
    4872 OW          15.3680    26.0780    97.6720 OW            1 RES     
    4873 HW1         16.0210    26.7040    97.2470 HW1           1 RES     
    4874 HW2         14.4440    26.4500    97.5860 HW2           1 RES     
    4875 OW          25.3400    22.4080    98.8780 OW            1 RES     
    4876 HW1         25.9140    22.7420    99.6250 HW1           1 RES     
    4877 HW2         25.7350    21.5700    98.5030 HW2           1 RES     
    4878 OW          28.8110    37.4320    94.6390 OW            1 RES     
    4879 HW1         28.4790    38.2970    94.2640 HW1           1 RES     
    4880 HW2         28.4710    36.6740    94.0830 HW2           1 RES     
    4881 OW           9.1930    17.8210    84.5130 OW            1 RES     
    4882 HW1          9.4380    17.4160    83.6330 HW1           1 RES     
    4883 HW2         10.0190    17.9530    85.0620 HW2           1 RES     
    4884 OW          35.5630     5.9400    91.5310 OW            1 RES     
    4885 HW1         35.6450     5.2900    90.7760 HW1           1 RES     
    4886 HW2         34.8640     6.6200    91.3120 HW2           1 RES     
    4887 OW          19.0690     3.6960    90.3430 OW            1 RES     
    4888 HW1         18.3100     4.3300    90.1930 HW1           1 RES     
    4889 HW2         19.0860     3.0170    89.6090 HW2           1 RES     
    4890 OW           8.1480    21.1860    95.1370 OW            1 RES     
    4891 HW1          8.0690    21.8690    94.4110 HW1           1 RES     
    4892 HW2          7.5350    20.4200    94.9430 HW2           1 RES     
    4893 OW          30.7860    36.1010    82.1120 OW            1 RES     
    4894 HW1         31.5880    36.0660    81.5170 HW1           1 RES     
    4895 HW2         30.3110    35.2220    82.0850 HW2           1 RES     
    4896 OW          33.5410     7.7570    79.2530 OW            1 RES     
    4897 HW1         33.0360     7.1010    78.6940 HW1           1 RES     
    4898 HW2         34.2360     8.2070    78.6940 HW2           1 RES     
    4899 OW          29.1990    18.1620    86.0820 OW            1 RES     
    4900 HW1         28.2760    18.5150    85.9300 HW1           1 RES     
    4901 HW2         29.1530    17.1840    86.2820 HW2           1 RES     
    4902 OW          34.4760    37.3310    99.8250 OW            1 RES     
    4903 HW1         33.8430    36.9030    99.1820 HW1           1 RES     
    4904 HW2         34.9350    36.6240   100.3640 HW2           1 RES     
    4905 OW          20.5450    28.9670    96.2730 OW            1 RES     
    4906 HW1         20.9770    29.8550    96.4270 HW1           1 RES     
    4907 HW2         19.5550    29.0530    96.3880 HW2           1 RES     
    4908 OW           6.5770    18.4880    90.7480 OW            1 RES     
    4909 HW1          7.5390    18.4820    91.0210 HW1           1 RES     
    4910 HW2          6.0340    18.9480    91.4500 HW2           1 RES     
    4911 OW          16.1030     7.0080    92.5270 OW            1 RES     
    4912 HW1         16.3800     6.1080    92.1930 HW1           1 RES     
    4913 HW2         15.2150     7.2500    92.1360 HW2           1 RES     
    4914 OW          37.2630    16.0160    83.7840 OW            1 RES     
    4915 HW1         38.0160    15.3770    83.9360 HW1           1 RES     
    4916 HW2         37.2530    16.2980    82.8240 HW2           1 RES     
    4917 OW          40.0430     5.9920    97.1950 OW            1 RES     
    4918 HW1         39.0980     6.1840    97.4590 HW1           1 RES     
    4919 HW2         40.0600     5.5980    96.2760 HW2           1 RES     
    4920 OW           3.9900    38.6040    84.3070 OW            1 RES     
    4921 HW1          3.3300    38.7110    85.0500 HW1           1 RES     
    4922 HW2          3.5970    38.9590    83.4580 HW2           1 RES     
    4923 OW           5.0460    18.6970    79.2830 OW            1 RES     
    4924 HW1          4.6880    17.9730    78.6940 HW1           1 RES     
    4925 HW2          4.6020    18.6490    80.1780 HW2           1 RES     
    4926 OW          39.9170    38.3690    99.1660 OW            1 RES     
    4927 HW1         39.2620    39.0040    98.7580 HW1           1 RES     
    4928 HW2         40.3960    37.8720    98.4420 HW2           1 RES     
    4929 OW           6.2640    26.1650    95.8460 OW            1 RES     
    4930 HW1          6.9900    26.8300    95.6760 HW1           1 RES     
    4931 HW2          5.3900    26.5360    95.5310 HW2           1 RES     
    4932 OW          34.7360    12.8910    78.7040 OW            1 RES     
    4933 HW1         34.1210    12.1030    78.7030 HW1           1 RES     
    4934 HW2         34.1990    13.7340    78.6930 HW2           1 RES     
    4935 OW          38.7070    36.7990    94.5260 OW            1 RES     
    4936 HW1         39.1630    37.3920    93.8630 HW1           1 RES     
    4937 HW2         37.7650    37.1080    94.6580 HW2           1 RES     
    4938 OW          18.4200    20.1080    84.3230 OW            1 RES     
    4939 HW1         19.2270    20.3010    84.8800 HW1           1 RES     
    4940 HW2         18.5700    19.2710    83.7960 HW2           1 RES     
    4941 OW          25.2760    18.0430    93.5940 OW            1 RES     
    4942 HW1         24.7000    17.3730    93.1270 HW1           1 RES     
    4943 HW2         26.1040    17.5930    93.9320 HW2           1 RES     
    4944 OW          19.1130    26.7240    82.8570 OW            1 RES     
    4945 HW1         18.1210    26.8290    82.9200 HW1           1 RES     
    4946 HW2         19.4580    27.2590    82.0860 HW2           1 RES     
    4947 OW          25.6250    22.7080    81.0150 OW            1 RES     
    4948 HW1         26.3690    23.1020    81.5530 HW1           1 RES     
    4949 HW2         24.9710    23.4250    80.7750 HW2           1 RES     
    4950 OW          11.5780    40.2940   100.0340 OW            1 RES     
    4951 HW1         12.2220    40.9240    99.6020 HW1           1 RES     
    4952 HW2         10.7790    40.8030   100.3580 HW2           1 RES     
    4953 OW           5.9460    22.0250    78.7380 OW            1 RES     
    4954 HW1          5.6220    22.8180    79.2530 HW1           1 RES     
    4955 HW2          5.2220    21.3360    78.6940 HW2           1 RES     
    4956 OW           9.8120     6.2370    91.2710 OW            1 RES     
    4957 HW1         10.1850     5.7550    90.4790 HW1           1 RES     
    4958 HW2          9.9500     7.2210    91.1590 HW2           1 RES     
    4959 OW          23.4820     4.2800    88.8070 OW            1 RES     
    4960 HW1         23.5840     3.5380    88.1450 HW1           1 RES     
    4961 HW2         24.0440     5.0590    88.5260 HW2           1 RES     
    4962 OW           5.1520    20.8610    97.5430 OW            1 RES     
    4963 HW1          4.7510    19.9530    97.6630 HW1           1 RES     
    4964 HW2          6.1490    20.7910    97.5620 HW2           1 RES     
    4965 OW          31.5130    32.4000    82.8350 OW            1 RES     
    4966 HW1         31.5480    31.9920    83.7460 HW1           1 RES     
    4967 HW2         30.7640    31.9910    82.3140 HW2           1 RES     
    4968 OW          30.7690    19.7320    94.7630 OW            1 RES     
    4969 HW1         31.2650    20.5080    95.1500 HW1           1 RES     
    4970 HW2         31.0360    19.6070    93.8080 HW2           1 RES     
    4971 OW          23.2970     9.9760    96.6410 OW            1 RES     
    4972 HW1         22.3550     9.8450    96.9490 HW1           1 RES     
    4973 HW2         23.4720     9.3940    95.8470 HW2           1 RES     
    4974 OW          32.7440    35.7130    89.3970 OW            1 RES     
    4975 HW1         33.0850    36.6510    89.4310 HW1           1 RES     
    4976 HW2         33.4270    35.1240    88.9650 HW2           1 RES     
    4977 OW          31.6080    27.5510    81.4480 OW            1 RES     
    4978 HW1         31.2680    28.1730    80.7440 HW1           1 RES     
    4979 HW2         32.5890    27.6960    81.5770 HW2           1 RES     
    4980 OW          10.0590    13.8380    94.5390 OW            1 RES     
    4981 HW1         10.1300    13.7640    93.5450 HW1           1 RES     
    4982 HW2         10.8870    14.2680    94.9020 HW2           1 RES     
    4983 OW           8.6360    39.3740    93.2330 OW            1 RES     
    4984 HW1          8.5920    38.4530    92.8490 HW1           1 RES     
    4985 HW2          7.7640    39.8410    93.0800 HW2           1 RES     
    4986 OW          32.9070    25.5120    83.3460 OW            1 RES     
    4987 HW1         32.7130    25.3650    84.3150 HW1           1 RES     
    4988 HW2         32.1500    26.0140    82.9260 HW2           1 RES     
    4989 OW          11.3970    26.4830    91.0390 OW            1 RES     
    4990 HW1         11.2540    27.3420    90.5480 HW1           1 RES     
    4991 HW2         10.6950    26.3820    91.7440 HW2           1 RES     
    4992 OW           5.6160     3.6430    79.7750 OW            1 RES     
    4993 HW1          6.3570     3.8120    79.1260 HW1           1 RES     
    4994 HW2          5.0320     2.9080    79.4310 HW2           1 RES     
    4995 OW          11.6260    38.7200    93.1300 OW            1 RES     
    4996 HW1         12.2180    39.4580    93.4510 HW1           1 RES     
    4997 HW2         10.7720    39.1050    92.7810 HW2           1 RES     
    4998 OW          38.6580    26.1090    94.9990 OW            1 RES     
    4999 HW1         38.6500    26.9260    95.5740 HW1           1 RES     
    5000 HW2         39.5190    26.0660    94.4910 HW2           1 RES     
    5001 OW          15.7400    19.1900    95.5490 OW            1 RES     
    5002 HW1         14.9260    19.2530    94.9710 HW1           1 RES     
    5003 HW2         15.5160    18.6910    96.3860 HW2           1 RES     
    5004 OW          21.4590    30.0100    98.7770 OW            1 RES     
    5005 HW1         20.8170    29.9430    99.5400 HW1           1 RES     
    5006 HW2         21.6160    29.1010    98.3920 HW2           1 RES     
    5007 OW          36.6150    29.8280    78.7730 OW            1 RES     
    5008 HW1         35.9200    30.5430    78.7040 HW1           1 RES     
    5009 HW2         37.5240    30.2370    78.6930 HW2           1 RES     
    5010 OW          31.6390    25.0820    95.1830 OW            1 RES     
    5011 HW1         32.5630    25.1560    94.8100 HW1           1 RES     
    5012 HW2         31.2590    25.9970    95.3170 HW2           1 RES     
    5013 OW          23.2760    36.8220    94.0000 OW            1 RES     
    5014 HW1         23.8630    37.6300    93.9750 HW1           1 RES     
    5015 HW2         23.8200    36.0080    93.7910 HW2           1 RES     
    5016 OW          21.5490    36.4970    83.6360 OW            1 RES     
    5017 HW1         22.5070    36.4120    83.3630 HW1           1 RES     
    5018 HW2         21.0020    35.8120    83.1550 HW2           1 RES     
    5019 OW          31.1410    27.5420    98.8440 OW            1 RES     
    5020 HW1         31.3180    27.8040    97.8950 HW1           1 RES     
    5021 HW2         31.8750    26.9450    99.1680 HW2           1 RES     
    5022 OW          28.5770    31.6350    94.6820 OW            1 RES     
    5023 HW1         29.4990    31.2610    94.7680 HW1           1 RES     
    5024 HW2         27.9090    30.9490    94.9710 HW2           1 RES     
    5025 OW          15.1300    26.8920    84.0790 OW            1 RES     
    5026 HW1         14.1710    26.6130    84.1100 HW1           1 RES     
    5027 HW2         15.5030    26.9090    85.0070 HW2           1 RES     
    5028 OW          18.0740    13.8040    90.0790 OW            1 RES     
    5029 HW1         18.6820    13.0150    90.0050 HW1           1 RES     
    5030 HW2         17.7560    14.0670    89.1670 HW2           1 RES     
    5031 OW           6.7330    31.0780    84.7090 OW            1 RES     
    5032 HW1          6.5770    30.1750    84.3090 HW1           1 RES     
    5033 HW2          5.9660    31.6790    84.4850 HW2           1 RES     
    5034 OW          26.3400    38.3320    90.7030 OW            1 RES     
    5035 HW1         26.0580    38.7600    91.5610 HW1           1 RES     
    5036 HW2         25.7400    38.6390    89.9640 HW2           1 RES     
    5037 OW          11.1490    15.9640    78.7370 OW            1 RES     
    5038 HW1         10.2830    15.4740    78.8230 HW1           1 RES     
    5039 HW2         10.9740    16.9480    78.6950 HW2           1 RES     
    5040 OW          10.4580     9.9990    95.1470 OW            1 RES     
    5041 HW1          9.4660     9.9900    95.2660 HW1           1 RES     
    5042 HW2         10.7820     9.0710    94.9620 HW2           1 RES     
    5043 OW          33.5430    34.7410   100.1250 OW            1 RES     
    5044 HW1         32.5600    34.8830   100.2360 HW1           1 RES     
    5045 HW2         33.7520    33.7660   100.2120 HW2           1 RES     
    5046 OW          13.5470    15.8010    90.4720 OW            1 RES     
    5047 HW1         14.5320    15.9110    90.6020 HW1           1 RES     
    5048 HW2         13.3620    14.9100    90.0580 HW2           1 RES     
    5049 OW           5.6370    28.7850    99.4840 OW            1 RES     
    5050 HW1          4.9920    29.4620    99.1320 HW1           1 RES     
    5051 HW2          5.2840    28.3990   100.3360 HW2           1 RES     
    5052 OW          34.6760    24.8020    99.5900 OW            1 RES     
    5053 HW1         34.6170    24.6190    98.6090 HW1           1 RES     
    5054 HW2         34.5020    23.9580   100.0980 HW2           1 RES     
    5055 OW           5.0070    16.1450    84.6770 OW            1 RES     
    5056 HW1          5.4180    16.9200    84.2000 HW1           1 RES     
    5057 HW2          4.0310    16.1010    84.4640 HW2           1 RES     
    5058 OW          29.2940    20.5670    86.9240 OW            1 RES     
    5059 HW1         28.5480    20.9920    86.4120 HW1           1 RES     
    5060 HW2         29.7770    21.2650    87.4530 HW2           1 RES     
    5061 OW          19.3580    14.4040    93.5600 OW            1 RES     
    5062 HW1         20.2820    14.2750    93.9200 HW1           1 RES     
    5063 HW2         18.7060    14.4300    94.3170 HW2           1 RES     
    5064 OW          32.4960     9.8870    85.3010 OW            1 RES     
    5065 HW1         32.3930    10.0370    86.2840 HW1           1 RES     
    5066 HW2         32.8300    10.7250    84.8690 HW2           1 RES     
    5067 OW          38.0430    20.8440    95.0540 OW            1 RES     
    5068 HW1         38.4770    21.7440    95.0570 HW1           1 RES     
    5069 HW2         38.7470    20.1340    95.0520 HW2           1 RES     
    5070 OW          33.2860    34.8370    93.5410 OW            1 RES     
    5071 HW1         32.3570    35.2050    93.5490 HW1           1 RES     
    5072 HW2         33.9440    35.5890    93.5880 HW2           1 RES     
    5073 OW          31.3200    11.7240    88.1130 OW            1 RES     
    5074 HW1         31.4900    10.8340    88.5350 HW1           1 RES     
    5075 HW2         31.1040    11.5980    87.1440 HW2           1 RES     
    5076 OW          39.7220    22.2180    81.2160 OW            1 RES     
    5077 HW1         39.1020    21.4580    81.4080 HW1           1 RES     
    5078 HW2         40.5370    21.8740    80.7490 HW2           1 RES     
    5079 OW          10.3820    19.8010    90.1870 OW            1 RES     
    5080 HW1         11.3160    20.1570    90.1790 HW1           1 RES     
    5081 HW2         10.4040    18.8040    90.1100 HW2           1 RES     
    5082 OW          33.9340    11.2440    88.7820 OW            1 RES     
    5083 HW1         33.5840    10.3280    88.9790 HW1           1 RES     
    5084 HW2         33.3000    11.9280    89.1430 HW2           1 RES     
    5085 OW          29.2510    34.5520    84.9060 OW            1 RES     
    5086 HW1         29.7090    35.4380    84.9780 HW1           1 RES     
    5087 HW2         28.7180    34.3840    85.7350 HW2           1 RES     
    5088 OW           9.3910    17.4620    80.5780 OW            1 RES     
    5089 HW1          8.5900    16.8690    80.6490 HW1           1 RES     
    5090 HW2          9.0960    18.4070    80.4340 HW2           1 RES     
    5091 OW          31.6860    33.0950    89.5520 OW            1 RES     
    5092 HW1         31.1420    32.2570    89.5640 HW1           1 RES     
    5093 HW2         32.6570    32.8650    89.6240 HW2           1 RES     
    5094 OW          19.4500    21.9500    93.7970 OW            1 RES     
    5095 HW1         19.3160    21.2300    94.4770 HW1           1 RES     
    5096 HW2         19.3420    21.5670    92.8790 HW2           1 RES     
    5097 OW          13.2720    10.8270    86.8390 OW            1 RES     
    5098 HW1         12.6010    11.5620    86.7540 HW1           1 RES     
    5099 HW2         13.6310    10.5970    85.9340 HW2           1 RES     
    5100 OW          13.4670    28.4010    99.4570 OW            1 RES     
    5101 HW1         14.1310    29.1310    99.6140 HW1           1 RES     
    5102 HW2         12.5950    28.7980    99.1690 HW2           1 RES     
    5103 OW          21.4840    12.2290    90.6980 OW            1 RES     
    5104 HW1         20.7130    12.8500    90.8360 HW1           1 RES     
    5105 HW2         21.1480    11.2890    90.6290 HW2           1 RES     
    5106 OW           4.8660     9.1020    97.8360 OW            1 RES     
    5107 HW1          5.6840     8.5700    97.6210 HW1           1 RES     
    5108 HW2          4.5330     8.8500    98.7440 HW2           1 RES     
    5109 OW          33.0540    33.9600    79.8000 OW            1 RES     
    5110 HW1         33.3170    33.2480    79.1500 HW1           1 RES     
    5111 HW2         32.1760    33.7230    80.2170 HW2           1 RES     
    5112 OW           6.2760    40.3110    79.0190 OW            1 RES     
    5113 HW1          6.6370    39.3850    78.9130 HW1           1 RES     
    5114 HW2          5.2800    40.2720    79.1090 HW2           1 RES     
    5115 OW          22.2140    39.2860    78.8470 OW            1 RES     
    5116 HW1         23.0660    38.7830    78.7030 HW1           1 RES     
    5117 HW2         21.4580    38.6400    78.9520 HW2           1 RES     
    5118 OW           6.5860    28.6050    80.3330 OW            1 RES     
    5119 HW1          6.8360    29.5730    80.3510 HW1           1 RES     
    5120 HW2          5.5900    28.5170    80.3560 HW2           1 RES     
    5121 OW          37.5940    10.5790    91.8190 OW            1 RES     
    5122 HW1         37.7890    11.5410    91.6280 HW1           1 RES     
    5123 HW2         36.6870    10.4990    92.2330 HW2           1 RES     
    5124 OW          23.9200    33.7760    79.7240 OW            1 RES     
    5125 HW1         24.2400    34.6900    79.4790 HW1           1 RES     
    5126 HW2         22.9500    33.6890    79.4980 HW2           1 RES     
    5127 OW          28.9730    37.5440    86.0520 OW            1 RES     
    5128 HW1         28.7230    38.5010    86.1920 HW1           1 RES     
    5129 HW2         29.5760    37.2440    86.7920 HW2           1 RES     
    5130 OW           5.9860    24.4600    92.4160 OW            1 RES     
    5131 HW1          5.8120    24.9730    93.2560 HW1           1 RES     
    5132 HW2          5.2120    23.8550    92.2270 HW2           1 RES     
    5133 OW           9.1520    31.4400    78.9430 OW            1 RES     
    5134 HW1          9.7280    32.2320    79.1410 HW1           1 RES     
    5135 HW2          9.7290    30.6610    78.6960 HW2           1 RES     
    5136 OW          19.3270    35.6960    95.2200 OW            1 RES     
    5137 HW1         18.4590    35.2500    95.0030 HW1           1 RES     
    5138 HW2         19.9170    35.0550    95.7110 HW2           1 RES     
    5139 OW          24.3880    27.8190    92.5480 OW            1 RES     
    5140 HW1         24.5780    27.9160    91.5720 HW1           1 RES     
    5141 HW2         23.5930    28.3750    92.7900 HW2           1 RES     
    5142 OW           3.7390     4.7790    92.9170 OW            1 RES     
    5143 HW1          4.1110     3.8530    92.8510 HW1           1 RES     
    5144 HW2          2.7540     4.7560    92.7450 HW2           1 RES     
    5145 OW           6.7760     9.7850    84.4360 OW            1 RES     
    5146 HW1          6.2280    10.1580    83.6880 HW1           1 RES     
    5147 HW2          7.7410     9.7850    84.1750 HW2           1 RES     
    5148 OW          28.9790    39.8410    82.9980 OW            1 RES     
    5149 HW1         28.0580    40.1940    82.8330 HW1           1 RES     
    5150 HW2         29.0750    38.9450    82.5640 HW2           1 RES     
    5151 OW          23.2640    31.6360    85.3130 OW            1 RES     
    5152 HW1         22.2930    31.8720    85.3040 HW1           1 RES     
    5153 HW2         23.5230    31.2510    84.4270 HW2           1 RES     
    5154 OW          14.2930    33.5840    99.7940 OW            1 RES     
    5155 HW1         14.7810    32.9210    99.2270 HW1           1 RES     
    5156 HW2         14.9490    34.0860   100.3590 HW2           1 RES     
    5157 OW          21.1670    33.3980    88.8290 OW            1 RES     
    5158 HW1         20.4280    32.8760    89.2540 HW1           1 RES     
    5159 HW2         21.9180    32.7820    88.5920 HW2           1 RES     
    5160 OW           5.1830    36.6320    87.4110 OW            1 RES     
    5161 HW1          5.0660    35.8590    88.0330 HW1           1 RES     
    5162 HW2          5.7020    37.3540    87.8690 HW2           1 RES     
    5163 OW          31.5590    10.6640    96.2310 OW            1 RES     
    5164 HW1         32.2330     9.9380    96.3610 HW1           1 RES     
    5165 HW2         32.0290    11.5290    96.0530 HW2           1 RES     
    5166 OW          26.1690    19.9310    78.6930 OW            1 RES     
    5167 HW1         25.2070    19.6910    78.8190 HW1           1 RES     
    5168 HW2         26.7440    19.2660    79.1700 HW2           1 RES     
    5169 OW          11.7660    39.5180    87.6960 OW            1 RES     
    5170 HW1         12.5600    39.4740    88.3010 HW1           1 RES     
    5171 HW2         11.8920    38.8860    86.9320 HW2           1 RES     
    5172 OW          19.4130     7.6600    80.5990 OW            1 RES     
    5173 HW1         20.1640     7.0020    80.6460 HW1           1 RES     
    5174 HW2         18.5870     7.2520    80.9880 HW2           1 RES     
    5175 OW          12.6580    21.5110    82.4640 OW            1 RES     
    5176 HW1         11.9040    22.1660    82.4370 HW1           1 RES     
    5177 HW2         12.4190    20.7510    83.0690 HW2           1 RES     
    5178 OW          29.5270    19.5610    90.6120 OW            1 RES     
    5179 HW1         29.0800    18.8270    90.1010 HW1           1 RES     
    5180 HW2         30.4060    19.7780    90.1860 HW2           1 RES     
    5181 OW           2.5050    18.7940    84.5950 OW            1 RES     
    5182 HW1          3.0050    17.9930    84.9210 HW1           1 RES     
    5183 HW2          3.1420    19.5530    84.4610 HW2           1 RES     
    5184 OW          31.6840    23.2430    79.5900 OW            1 RES     
    5185 HW1         31.6420    22.9710    80.5510 HW1           1 RES     
    5186 HW2         30.7690    23.1950    79.1900 HW2           1 RES     
    5187 OW          35.3470    16.1760    90.2440 OW            1 RES     
    5188 HW1         35.8180    15.9560    89.3910 HW1           1 RES     
    5189 HW2         34.3720    16.3100    90.0630 HW2           1 RES     
    5190 OW          36.4080    30.4570    82.0400 OW            1 RES     
    5191 HW1         36.6290    29.4820    82.0180 HW1           1 RES     
    5192 HW2         37.2530    30.9910    82.0640 HW2           1 RES     
    5193 OW          14.6630    10.0300    83.6260 OW            1 RES     
    5194 HW1         14.8960    10.8470    84.1510 HW1           1 RES     
    5195 HW2         15.4960     9.6280    83.2450 HW2           1 RES     
    5196 OW           9.6040     5.0670    97.3980 OW            1 RES     
    5197 HW1          9.2410     4.6630    98.2360 HW1           1 RES     
    5198 HW2          8.8640     5.5130    96.8940 HW2           1 RES     
    5199 OW          26.6630    28.3230    94.2540 OW            1 RES     
    5200 HW1         26.5390    27.3320    94.2940 HW1           1 RES     
    5201 HW2         25.7990    28.7580    94.0010 HW2           1 RES     
    5202 OW          26.1120     8.8190    87.6490 OW            1 RES     
    5203 HW1         26.0610     9.7410    87.2660 HW1           1 RES     
    5204 HW2         27.0230     8.6680    88.0350 HW2           1 RES     
    5205 OW          37.1420     5.7900    95.2160 OW            1 RES     
    5206 HW1         36.1750     5.5770    95.0830 HW1           1 RES     
    5207 HW2         37.3040     6.0240    96.1750 HW2           1 RES     
    5208 OW          32.4930    37.2430    94.3810 OW            1 RES     
    5209 HW1         31.8440    37.9810    94.5670 HW1           1 RES     
    5210 HW2         33.3960    37.6310    94.1960 HW2           1 RES     
    5211 OW          26.9590    15.5700    93.8080 OW            1 RES     
    5212 HW1         26.7360    14.6490    94.1230 HW1           1 RES     
    5213 HW2         27.9460    15.6440    93.6640 HW2           1 RES     
    5214 OW          28.9470    22.5370    98.9370 OW            1 RES     
    5215 HW1         28.5440    22.0920    98.1380 HW1           1 RES     
    5216 HW2         28.2200    22.8370    99.5540 HW2           1 RES     
    5217 OW          17.6250    40.5520    80.7690 OW            1 RES     
    5218 HW1         18.5000    40.2280    80.4110 HW1           1 RES     
    5219 HW2         16.8820    40.2100    80.1930 HW2           1 RES     
    5220 OW          36.6560    10.1620    80.6690 OW            1 RES     
    5221 HW1         37.4300    10.2860    81.2890 HW1           1 RES     
    5222 HW2         36.3980     9.1950    80.6470 HW2           1 RES     
    5223 OW          32.3320    19.2030    91.3550 OW            1 RES     
    5224 HW1         31.7380    18.6530    91.9410 HW1           1 RES     
    5225 HW2         32.7390    18.6200    90.6510 HW2           1 RES     
    5226 OW          29.5550    19.4870    83.3850 OW            1 RES     
    5227 HW1         28.6180    19.1390    83.3830 HW1           1 RES     
    5228 HW2         30.1950    18.7240    83.2980 HW2           1 RES     
    5229 OW          38.0600     9.0430    94.5720 OW            1 RES     
    5230 HW1         38.4870     8.3140    94.0390 HW1           1 RES     
    5231 HW2         37.2950     9.4300    94.0570 HW2           1 RES     
    5232 OW          19.7220     5.4090    93.4920 OW            1 RES     
    5233 HW1         19.1580     5.8960    94.1580 HW1           1 RES     
    5234 HW2         20.1360     6.0660    92.8610 HW2           1 RES     
    5235 OW          11.9200    13.9170    80.3110 OW            1 RES     
    5236 HW1         11.1830    14.5290    80.5940 HW1           1 RES     
    5237 HW2         12.6130    14.4370    79.8120 HW2           1 RES     
    5238 OW          17.8150    39.7900    85.6470 OW            1 RES     
    5239 HW1         17.2580    40.6090    85.7840 HW1           1 RES     
    5240 HW2         18.6880    39.8970    86.1230 HW2           1 RES     
    5241 OW          24.6640     7.2110    80.2730 OW            1 RES     
    5242 HW1         24.9520     6.5340    80.9490 HW1           1 RES     
    5243 HW2         25.3200     7.9670    80.2570 HW2           1 RES     
    5244 OW          29.3370    30.0300    92.3210 OW            1 RES     
    5245 HW1         30.0360    29.9070    93.0240 HW1           1 RES     
    5246 HW2         28.6260    30.6460    92.6600 HW2           1 RES     
    5247 OW          22.7230    37.2040    99.0190 OW            1 RES     
    5248 HW1         22.8640    38.1020    98.6030 HW1           1 RES     
    5249 HW2         23.2020    37.1640    99.8960 HW2           1 RES     
    5250 OW           2.9930    19.3650    78.8610 OW            1 RES     
    5251 HW1          2.5020    18.5520    79.1700 HW1           1 RES     
    5252 HW2          2.5050    20.1850    79.1630 HW2           1 RES     
    5253 OW          29.4050    29.1840    89.5970 OW            1 RES     
    5254 HW1         30.3050    28.7490    89.5760 HW1           1 RES     
    5255 HW2         29.5140    30.1780    89.5880 HW2           1 RES     
    5256 OW          40.9260    18.5930    83.2600 OW            1 RES     
    5257 HW1         40.3470    17.8480    82.9300 HW1           1 RES     
    5258 HW2         40.4030    19.4460    83.2650 HW2           1 RES     
    5259 OW          36.3690    23.1910    80.0920 OW            1 RES     
    5260 HW1         35.9980    23.2290    81.0190 HW1           1 RES     
    5261 HW2         35.6650    22.8560    79.4650 HW2           1 RES     
    5262 OW          15.7940    29.9530    87.8360 OW            1 RES     
    5263 HW1         14.9160    29.4820    87.7540 HW1           1 RES     
    5264 HW2         15.6440    30.9420    87.8330 HW2           1 RES     
    5265 OW          33.2550    37.0080    80.0480 OW            1 RES     
    5266 HW1         34.0200    37.6450    80.1350 HW1           1 RES     
    5267 HW2         33.5930    36.0690    80.1150 HW2           1 RES     
    5268 OW          24.6310    15.4770    81.4590 OW            1 RES     
    5269 HW1         23.8980    15.9760    80.9960 HW1           1 RES     
    5270 HW2         24.2970    14.5760    81.7370 HW2           1 RES     
    5271 OW          15.6990     3.5040    87.7170 OW            1 RES     
    5272 HW1         14.7190     3.6440    87.5810 HW1           1 RES     
    5273 HW2         15.9900     3.9690    88.5530 HW2           1 RES     
    5274 OW          21.3570    28.3590    85.8340 OW            1 RES     
    5275 HW1         20.8700    27.4940    85.9540 HW1           1 RES     
    5276 HW2         20.9270    29.0650    86.3980 HW2           1 RES     
    5277 OW           9.8880     2.9640    89.7990 OW            1 RES     
    5278 HW1         10.6580     2.5000    90.2360 HW1           1 RES     
    5279 HW2         10.2140     3.7860    89.3330 HW2           1 RES     
    5280 OW          29.4720    28.0590    94.0770 OW            1 RES     
    5281 HW1         30.3360    27.5700    93.9670 HW1           1 RES     
    5282 HW2         28.9610    27.6670    94.8430 HW2           1 RES     
    5283 OW          39.0690    31.2330    95.2590 OW            1 RES     
    5284 HW1         38.4740    30.5960    95.7480 HW1           1 RES     
    5285 HW2         38.7010    32.1600    95.3370 HW2           1 RES     
    5286 OW          35.0010    22.4170    96.9730 OW            1 RES     
    5287 HW1         35.6880    22.1800    96.2870 HW1           1 RES     
    5288 HW2         35.2730    22.0430    97.8600 HW2           1 RES     
    5289 OW          26.3010    10.4360    91.7020 OW            1 RES     
    5290 HW1         25.4450    10.9480    91.7690 HW1           1 RES     
    5291 HW2         27.0740    11.0600    91.8180 HW2           1 RES     
    5292 OW          26.2830    10.8550    89.2720 OW            1 RES     
    5293 HW1         26.7050    11.7180    88.9970 HW1           1 RES     
    5294 HW2         25.3100    10.8690    89.0400 HW2           1 RES     
    5295 OW          17.0190     9.2410    97.8670 OW            1 RES     
    5296 HW1         17.4050     8.4200    97.4470 HW1           1 RES     
    5297 HW2         16.0300     9.1310    97.9680 HW2           1 RES     
    5298 OW          30.6110    25.4460    88.8980 OW            1 RES     
    5299 HW1         31.3710    25.9570    89.3000 HW1           1 RES     
    5300 HW2         30.7590    24.4660    89.0330 HW2           1 RES     
    5301 OW          12.9210    13.2450    94.1940 OW            1 RES     
    5302 HW1         12.2610    12.5860    94.5550 HW1           1 RES     
    5303 HW2         12.7870    13.3460    93.2080 HW2           1 RES     
    5304 OW          10.7990    39.1500    82.5820 OW            1 RES     
    5305 HW1         11.5850    39.2120    83.1960 HW1           1 RES     
    5306 HW2         10.3880    38.2410    82.6570 HW2           1 RES     
    5307 OW          23.5750    17.1610    91.2490 OW            1 RES     
    5308 HW1         22.8350    17.8290    91.1800 HW1           1 RES     
    5309 HW2         23.1900    16.2390    91.2930 HW2           1 RES     
    5310 OW          32.1280    18.6830    86.7150 OW            1 RES     
    5311 HW1         32.1200    19.6540    86.4780 HW1           1 RES     
    5312 HW2         31.3940    18.2140    86.2240 HW2           1 RES     
    5313 OW          16.3990    30.9290    80.4590 OW            1 RES     
    5314 HW1         15.7770    30.4690    81.0910 HW1           1 RES     
    5315 HW2         17.0250    30.2590    80.0600 HW2           1 RES     
    5316 OW           9.4180    25.7050    97.2640 OW            1 RES     
    5317 HW1          9.2570    25.8370    96.2860 HW1           1 RES     
    5318 HW2         10.2080    25.1060    97.3940 HW2           1 RES     
    5319 OW          34.0720     5.2460    94.1360 OW            1 RES     
    5320 HW1         33.3450     4.5750    93.9950 HW1           1 RES     
    5321 HW2         33.6910     6.0660    94.5630 HW2           1 RES     
    5322 OW          32.3040     5.7130    98.7520 OW            1 RES     
    5323 HW1         32.6620     6.3860    98.1050 HW1           1 RES     
    5324 HW2         33.0640     5.2610    99.2190 HW2           1 RES     
    5325 OW          29.5310    16.6720    91.6360 OW            1 RES     
    5326 HW1         30.2920    17.1630    91.2130 HW1           1 RES     
    5327 HW2         28.6920    17.2090    91.5400 HW2           1 RES     
    5328 OW          15.2320    37.7950    99.4180 OW            1 RES     
    5329 HW1         15.3760    37.5020   100.3630 HW1           1 RES     
    5330 HW2         14.9190    37.0170    98.8720 HW2           1 RES     
    5331 OW          12.8620    24.4070    92.6480 OW            1 RES     
    5332 HW1         11.9770    24.6720    92.2660 HW1           1 RES     
    5333 HW2         13.5800    24.9850    92.2610 HW2           1 RES     
    5334 OW          35.6820    33.6640    88.8520 OW            1 RES     
    5335 HW1         35.6780    34.1890    88.0020 HW1           1 RES     
    5336 HW2         34.7510    33.3700    89.0670 HW2           1 RES     
    5337 OW          10.4080    11.9820    92.2130 OW            1 RES     
    5338 HW1          9.8380    12.5810    91.6510 HW1           1 RES     
    5339 HW2         11.0920    11.5350    91.6360 HW2           1 RES     
    5340 OW           4.5910     5.6370    79.5410 OW            1 RES     
    5341 HW1          4.7190     6.5600    79.9010 HW1           1 RES     
    5342 HW2          3.6390     5.3580    79.6650 HW2           1 RES     
    5343 OW           4.5960    38.7390    91.2620 OW            1 RES     
    5344 HW1          4.7320    38.5460    92.2340 HW1           1 RES     
    5345 HW2          5.4830    38.8760    90.8210 HW2           1 RES     
    5346 OW           7.5280    18.9890    82.3870 OW            1 RES     
    5347 HW1          6.7670    18.3440    82.3200 HW1           1 RES     
    5348 HW2          7.1900    19.9200    82.2470 HW2           1 RES     
    5349 OW          30.2300     8.5010    92.7110 OW            1 RES     
    5350 HW1         31.2180     8.5350    92.5670 HW1           1 RES     
    5351 HW2         29.8250     9.3810    92.4620 HW2           1 RES     
    5352 OW          29.3860    21.0310    93.5110 OW            1 RES     
    5353 HW1         29.3560    20.5770    92.6220 HW1           1 RES     
    5354 HW2         30.1910    21.6220    93.5570 HW2           1 RES     
    5355 OW          24.2600    17.9980    82.4150 OW            1 RES     
    5356 HW1         23.3460    17.8290    82.0470 HW1           1 RES     
    5357 HW2         24.2370    18.8010    83.0110 HW2           1 RES     
    5358 OW          38.3200    20.9540    87.4240 OW            1 RES     
    5359 HW1         38.0240    20.0020    87.4950 HW1           1 RES     
    5360 HW2         39.3060    21.0100    87.5830 HW2           1 RES     
    5361 OW          17.1650     8.3940    85.4960 OW            1 RES     
    5362 HW1         17.9320     7.7580    85.4220 HW1           1 RES     
    5363 HW2         17.1120     8.9510    84.6670 HW2           1 RES     
    5364 OW          32.1500    15.7140    86.3080 OW            1 RES     
    5365 HW1         32.1490    14.9560    86.9590 HW1           1 RES     
    5366 HW2         31.2120    16.0220    86.1530 HW2           1 RES     
    5367 OW          33.9810    21.0970    81.4550 OW            1 RES     
    5368 HW1         34.8580    21.3440    81.0440 HW1           1 RES     
    5369 HW2         33.3670    21.8860    81.4310 HW2           1 RES     
    5370 OW          40.5950     8.7400    87.1500 OW            1 RES     
    5371 HW1         40.9260     9.6610    86.9480 HW1           1 RES     
    5372 HW2         39.5970     8.7240    87.0940 HW2           1 RES     
    5373 OW          10.3970     7.5730    96.5270 OW            1 RES     
    5374 HW1         10.6490     6.6410    96.2710 HW1           1 RES     
    5375 HW2         10.9500     7.8660    97.3070 HW2           1 RES     
    5376 OW          21.0580    35.7590    80.9520 OW            1 RES     
    5377 HW1         20.8180    36.7070    81.1540 HW1           1 RES     
    5378 HW2         20.2250    35.2320    80.7830 HW2           1 RES     
    5379 OW          11.8750    15.5850   100.3620 OW            1 RES     
    5380 HW1         11.2080    15.1660    99.7460 HW1           1 RES     
    5381 HW2         12.7960    15.2890   100.1080 HW2           1 RES     
    5382 OW          17.4860    39.3620   100.1760 OW            1 RES     
    5383 HW1         16.4920    39.4560   100.1390 HW1           1 RES     
    5384 HW2         17.7250    38.4090   100.3640 HW2           1 RES     
    5385 OW          38.9790    11.2770    99.6140 OW            1 RES     
    5386 HW1         38.3880    11.9780    99.2130 HW1           1 RES     
    5387 HW2         38.4510    10.4410    99.7630 HW2           1 RES     
    5388 OW           8.9180    23.5800    80.2000 OW            1 RES     
    5389 HW1          9.0140    22.5850    80.2250 HW1           1 RES     
    5390 HW2          7.9540    23.8250    80.2970 HW2           1 RES     
    5391 OW          35.8740    21.8790    88.9720 OW            1 RES     
    5392 HW1         36.8520    22.0810    88.9420 HW1           1 RES     
    5393 HW2         35.3550    22.7340    88.9740 HW2           1 RES     
    5394 OW          21.0600     3.7490    86.6290 OW            1 RES     
    5395 HW1         20.3410     3.0570    86.6830 HW1           1 RES     
    5396 HW2         20.6470     4.6580    86.5730 HW2           1 RES     
    5397 OW          40.0230    14.1680    98.7440 OW            1 RES     
    5398 HW1         39.4500    14.9730    98.8950 HW1           1 RES     
    5399 HW2         40.2060    13.7190    99.6190 HW2           1 RES     
    5400 OW           7.1900    12.6130    80.9240 OW            1 RES     
    5401 HW1          6.5660    12.3140    81.6450 HW1           1 RES     
    5402 HW2          7.3670    13.5930    81.0200 HW2           1 RES     
    5403 OW           5.5080    11.9980    90.1020 OW            1 RES     
    5404 HW1          4.8000    12.6970    90.1890 HW1           1 RES     
    5405 HW2          6.2330    12.3300    89.4980 HW2           1 RES     
    5406 OW          40.2750     3.5570    85.2110 OW            1 RES     
    5407 HW1         39.3560     3.6040    84.8200 HW1           1 RES     
    5408 HW2         40.9220     3.2610    84.5080 HW2           1 RES     
    5409 OW          24.6180    22.1230    96.6900 OW            1 RES     
    5410 HW1         23.6860    22.2280    96.3440 HW1           1 RES     
    5411 HW2         25.2690    22.2670    95.9450 HW2           1 RES     
    5412 OW           9.0180     8.1590    79.1810 OW            1 RES     
    5413 HW1          8.5520     8.8960    78.6930 HW1           1 RES     
    5414 HW2          8.6140     7.2800    78.9230 HW2           1 RES     
    5415 OW           4.8340     5.2040    86.0850 OW            1 RES     
    5416 HW1          4.8770     4.2060    86.0380 HW1           1 RES     
    5417 HW2          5.7610     5.5760    86.1310 HW2           1 RES     
    5418 OW           5.5910    30.7930    87.1940 OW            1 RES     
    5419 HW1          5.0990    31.6550    87.0810 HW1           1 RES     
    5420 HW2          4.9440    30.0670    87.4280 HW2           1 RES     
    5421 OW           7.0940    12.4640    84.6790 OW            1 RES     
    5422 HW1          7.2630    12.2040    83.7290 HW1           1 RES     
    5423 HW2          6.4030    11.8580    85.0740 HW2           1 RES     
    5424 OW          30.7940    20.5420    81.1310 OW            1 RES     
    5425 HW1         31.5090    20.7670    81.7930 HW1           1 RES     
    5426 HW2         29.9080    20.8490    81.4790 HW2           1 RES     
    5427 OW          20.4980    38.7230   100.3500 OW            1 RES     
    5428 HW1         19.8890    37.9300   100.3540 HW1           1 RES     
    5429 HW2         21.4490    38.4130   100.3500 HW2           1 RES     
    5430 OW          13.9240    10.6980    94.0920 OW            1 RES     
    5431 HW1         13.4180    11.1480    93.3570 HW1           1 RES     
    5432 HW2         14.0470    11.3360    94.8530 HW2           1 RES     
    5433 OW          10.9100    19.1760    95.6240 OW            1 RES     
    5434 HW1         11.7550    19.3300    95.1130 HW1           1 RES     
    5435 HW2         10.4490    18.3620    95.2690 HW2           1 RES     
    5436 OW          28.4940     6.6540    83.1950 OW            1 RES     
    5437 HW1         28.5320     6.6000    84.1920 HW1           1 RES     
    5438 HW2         28.7990     7.5580    82.8980 HW2           1 RES     
    5439 OW           2.6940    34.2890    86.9640 OW            1 RES     
    5440 HW1          3.6720    34.4850    87.0280 HW1           1 RES     
    5441 HW2          2.5030    33.8260    86.0980 HW2           1 RES     
    5442 OW          21.5460     3.9420    89.9530 OW            1 RES     
    5443 HW1         21.2480     3.8080    89.0090 HW1           1 RES     
    5444 HW2         21.2030     3.1940    90.5210 HW2           1 RES     
    5445 OW          14.5020    18.9540    82.7480 OW            1 RES     
    5446 HW1         14.4770    19.9500    82.6690 HW1           1 RES     
    5447 HW2         13.5680    18.5970    82.7590 HW2           1 RES     
    5448 OW          26.1740    32.2950    98.3340 OW            1 RES     
    5449 HW1         25.6530    31.5780    97.8700 HW1           1 RES     
    5450 HW2         25.7240    33.1770    98.1950 HW2           1 RES     
    5451 OW          32.5240    16.9130    99.5300 OW            1 RES     
    5452 HW1         32.9420    17.5000    98.8380 HW1           1 RES     
    5453 HW2         33.2260    16.6040   100.1730 HW2           1 RES     
    5454 OW          21.5710    17.3830    86.8830 OW            1 RES     
    5455 HW1         20.9840    16.5940    86.7080 HW1           1 RES     
    5456 HW2         21.0110    18.2090    86.9480 HW2           1 RES     
    5457 OW          21.3100    36.6980    86.3560 OW            1 RES     
    5458 HW1         22.0670    36.4050    85.7730 HW1           1 RES     
    5459 HW2         20.9560    37.5740    86.0280 HW2           1 RES     
    5460 OW          18.7930     7.6180    98.9540 OW            1 RES     
    5461 HW1         19.3880     8.3620    98.6520 HW1           1 RES     
    5462 HW2         18.9530     6.8120    98.3840 HW2           1 RES     
    5463 OW          12.9640     5.0980    95.2740 OW            1 RES     
    5464 HW1         13.2250     4.4070    94.6010 HW1           1 RES     
    5465 HW2         12.8290     5.9760    94.8150 HW2           1 RES     
    5466 OW          30.5870    27.7300    78.6990 OW            1 RES     
    5467 HW1         30.6140    28.7290    78.6930 HW1           1 RES     
    5468 HW2         31.5200    27.3710    78.7090 HW2           1 RES     
    5469 OW           7.7270    33.1730    80.3230 OW            1 RES     
    5470 HW1          8.2360    32.4240    80.7460 HW1           1 RES     
    5471 HW2          7.6820    33.0290    79.3340 HW2           1 RES     
    5472 OW           2.5020    31.0160    82.7390 OW            1 RES     
    5473 HW1          2.6770    30.4280    81.9500 HW1           1 RES     
    5474 HW2          2.7400    31.9600    82.5110 HW2           1 RES     
    5475 OW           9.7330    35.6200    78.8770 OW            1 RES     
    5476 HW1          9.2680    34.7360    78.9070 HW1           1 RES     
    5477 HW2         10.3070    35.7240    79.6900 HW2           1 RES     
    5478 OW          10.9830    25.4470    86.3160 OW            1 RES     
    5479 HW1         10.0440    25.1510    86.4800 HW1           1 RES     
    5480 HW2         11.6030    24.9470    86.9210 HW2           1 RES     
    5481 OW          29.5970    32.8820    79.9270 OW            1 RES     
    5482 HW1         30.0440    33.3400    79.1590 HW1           1 RES     
    5483 HW2         28.6780    33.2560    80.0500 HW2           1 RES     
    5484 OW          38.4510    32.1990    83.8360 OW            1 RES     
    5485 HW1         37.9350    32.1080    84.6860 HW1           1 RES     
    5486 HW2         38.1890    33.0460    83.3740 HW2           1 RES     
    5487 OW          14.2340    37.6590    88.1150 OW            1 RES     
    5488 HW1         14.0850    38.2350    87.3120 HW1           1 RES     
    5489 HW2         13.3510    37.3830    88.4960 HW2           1 RES     
    5490 OW          33.2220     6.1100    89.2930 OW            1 RES     
    5491 HW1         33.0750     5.7480    90.2130 HW1           1 RES     
    5492 HW2         34.1280     6.5310    89.2400 HW2           1 RES     
    5493 OW          12.0760    26.9150    96.4020 OW            1 RES     
    5494 HW1         12.5300    27.7760    96.1780 HW1           1 RES     
    5495 HW2         11.4820    26.6430    95.6440 HW2           1 RES     
    5496 OW          30.8550    16.4400    93.8770 OW            1 RES     
    5497 HW1         31.3750    16.7530    93.0830 HW1           1 RES     
    5498 HW2         30.1380    15.8090    93.5790 HW2           1 RES     
    5499 OW          30.3480    40.4810    91.8950 OW            1 RES     
    5500 HW1         29.3600    40.4270    91.7510 HW1           1 RES     
    5501 HW2         30.7170    39.5600    92.0230 HW2           1 RES     
    5502 OW          26.6170    24.1310    97.3100 OW            1 RES     
    5503 HW1         26.7720    23.1460    97.3710 HW1           1 RES     
    5504 HW2         27.4660    24.6160    97.5210 HW2           1 RES     
    5505 OW          25.7490    11.5820    84.7320 OW            1 RES     
    5506 HW1         24.9560    11.6100    84.1240 HW1           1 RES     
    5507 HW2         26.3350    10.8120    84.4810 HW2           1 RES     
    5508 OW          15.2490    17.2110    98.3230 OW            1 RES     
    5509 HW1         14.5760    16.5010    98.1160 HW1           1 RES     
    5510 HW2         14.7910    18.0990    98.3770 HW2           1 RES     
    5511 OW          35.8160    36.4900    84.9020 OW            1 RES     
    5512 HW1         36.2680    36.5100    85.7930 HW1           1 RES     
    5513 HW2         35.1290    35.7630    84.8930 HW2           1 RES     
    5514 OW          15.3230    34.8850    97.6490 OW            1 RES     
    5515 HW1         14.3900    34.5780    97.8350 HW1           1 RES     
    5516 HW2         15.9620    34.1350    97.8230 HW2           1 RES     
    5517 OW          12.5730    35.7680    97.4430 OW            1 RES     
    5518 HW1         12.9660    36.2240    98.2410 HW1           1 RES     
    5519 HW2         11.6970    36.1920    97.2140 HW2           1 RES     
    5520 OW          30.6320    24.9250    80.5420 OW            1 RES     
    5521 HW1         30.0150    25.7100    80.4920 HW1           1 RES     
    5522 HW2         31.5800    25.2420    80.5050 HW2           1 RES     
    5523 OW           9.8800    39.5340    89.1600 OW            1 RES     
    5524 HW1          9.7570    38.9290    88.3740 HW1           1 RES     
    5525 HW2          9.3690    40.3810    89.0120 HW2           1 RES     
    5526 OW           7.5730    39.1390    88.5250 OW            1 RES     
    5527 HW1          7.7680    38.9490    89.4870 HW1           1 RES     
    5528 HW2          7.6840    38.3010    87.9900 HW2           1 RES     
    5529 OW          27.7490     5.4430    94.7600 OW            1 RES     
    5530 HW1         27.2390     4.5920    94.6410 HW1           1 RES     
    5531 HW2         27.8060     5.9230    93.8840 HW2           1 RES     
    5532 OW          17.1520    40.2410    95.6140 OW            1 RES     
    5533 HW1         16.1690    40.4220    95.6230 HW1           1 RES     
    5534 HW2         17.3100    39.2530    95.6060 HW2           1 RES     
    5535 OW          19.3040    23.4320    99.1190 OW            1 RES     
    5536 HW1         19.6640    22.8090    98.4250 HW1           1 RES     
    5537 HW2         18.5870    22.9690    99.6420 HW2           1 RES     
    5538 OW          26.1670    19.7430    87.7510 OW            1 RES     
    5539 HW1         25.6700    19.8570    86.8920 HW1           1 RES     
    5540 HW2         27.0780    19.3740    87.5640 HW2           1 RES     
    5541 OW          22.2560     3.8890    92.4670 OW            1 RES     
    5542 HW1         23.1350     4.3620    92.4760 HW1           1 RES     
    5543 HW2         21.6120     4.3670    93.0650 HW2           1 RES     
    5544 OW          15.2900     3.0860    95.5310 OW            1 RES     
    5545 HW1         15.2740     2.5000    94.7220 HW1           1 RES     
    5546 HW2         15.5030     2.5350    96.3380 HW2           1 RES     
    5547 OW           6.8860    35.2170    83.5830 OW            1 RES     
    5548 HW1          7.1140    35.7070    84.4240 HW1           1 RES     
    5549 HW2          6.5410    35.8640    82.9030 HW2           1 RES     
    5550 OW          34.5350    14.1250    89.8590 OW            1 RES     
    5551 HW1         33.7600    14.0780    89.2300 HW1           1 RES     
    5552 HW2         34.7480    13.2080    90.1960 HW2           1 RES     
    5553 OW          17.2490    39.1340    92.3090 OW            1 RES     
    5554 HW1         17.3560    39.9810    92.8270 HW1           1 RES     
    5555 HW2         16.4790    38.6120    92.6760 HW2           1 RES     
    5556 OW          37.2180    25.6760    78.7110 OW            1 RES     
    5557 HW1         36.7510    26.5600    78.6930 HW1           1 RES     
    5558 HW2         36.5400    24.9410    78.7210 HW2           1 RES     
    5559 OW           6.3200     9.4810    90.1660 OW            1 RES     
    5560 HW1          6.3260     8.7920    89.4420 HW1           1 RES     
    5561 HW2          5.3850     9.6140    90.4920 HW2           1 RES     
    5562 OW          24.6220    27.8630    86.8680 OW            1 RES     
    5563 HW1         24.5550    27.1750    87.5900 HW1           1 RES     
    5564 HW2         24.7670    27.4110    85.9880 HW2           1 RES     
    5565 OW          39.3250     2.5020    92.1520 OW            1 RES     
    5566 HW1         38.7850     2.9850    92.8410 HW1           1 RES     
    5567 HW2         40.0440     3.1060    91.8070 HW2           1 RES     
    5568 OW           5.7370    16.3460    91.9640 OW            1 RES     
    5569 HW1          6.4230    16.9710    92.3340 HW1           1 RES     
    5570 HW2          5.5970    15.5880    92.6020 HW2           1 RES     
    5571 OW          26.8180    34.0270    90.0870 OW            1 RES     
    5572 HW1         26.4100    33.1250    90.2270 HW1           1 RES     
    5573 HW2         26.1890    34.7320    90.4150 HW2           1 RES     
    5574 OW          31.1580    11.2680    90.7490 OW            1 RES     
    5575 HW1         31.0720    12.1350    90.2600 HW1           1 RES     
    5576 HW2         30.2490    10.8860    90.9140 HW2           1 RES     
    5577 OW          36.2180    39.1350    99.5100 OW            1 RES     
    5578 HW1         35.3000    39.3770    99.1960 HW1           1 RES     
    5579 HW2         36.5820    38.3980    98.9400 HW2           1 RES     
    5580 OW          16.5270    29.6570    85.7830 OW            1 RES     
    5581 HW1         15.8410    28.9310    85.8200 HW1           1 RES     
    5582 HW2         17.4380    29.2610    85.8960 HW2           1 RES     
    5583 OW          40.2230    23.8880    99.4610 OW            1 RES     
    5584 HW1         40.9270    24.5860    99.3370 HW1           1 RES     
    5585 HW2         39.4160    24.2990    99.8850 HW2           1 RES     
    5586 OW          18.0130    15.8970    80.7710 OW            1 RES     
    5587 HW1         18.3490    15.3010    81.4990 HW1           1 RES     
    5588 HW2         18.5240    16.7560    80.7790 HW2           1 RES     
    5589 OW          25.2890    24.6280    78.9600 OW            1 RES     
    5590 HW1         25.5100    25.5650    78.6940 HW1           1 RES     
    5591 HW2         26.0720    24.0340    78.7700 HW2           1 RES     
    5592 OW          31.5520    35.8040    79.3330 OW            1 RES     
    5593 HW1         31.3480    36.6850    78.9090 HW1           1 RES     
    5594 HW2         31.3290    35.0660    78.6950 HW2           1 RES     
    5595 OW          11.9700    26.0640    98.4300 OW            1 RES     
    5596 HW1         11.4990    26.5770    99.1470 HW1           1 RES     
    5597 HW2         12.7300    25.5530    98.8300 HW2           1 RES     
    5598 OW           6.0960     5.1310    97.9310 OW            1 RES     
    5599 HW1          6.5730     5.9870    97.7350 HW1           1 RES     
    5600 HW2          5.5200     5.2470    98.7400 HW2           1 RES     
    5601 OW          36.0340    25.9500    88.0390 OW            1 RES     
    5602 HW1         35.7570    26.6300    88.7170 HW1           1 RES     
    5603 HW2         35.3640    25.2070    88.0170 HW2           1 RES     
    5604 OW          34.3270    29.4420    88.3670 OW            1 RES     
    5605 HW1         35.0410    28.8020    88.0860 HW1           1 RES     
    5606 HW2         33.4300    29.0120    88.2570 HW2           1 RES     
    5607 OW          26.8720    13.4820    82.8810 OW            1 RES     
    5608 HW1         26.6770    13.9840    82.0400 HW1           1 RES     
    5609 HW2         26.0340    13.3940    83.4190 HW2           1 RES     
    5610 OW           9.2330     6.9260    81.4030 OW            1 RES     
    5611 HW1          9.4520     5.9510    81.4020 HW1           1 RES     
    5612 HW2          8.2400     7.0460    81.4000 HW2           1 RES     
    5613 OW          10.8220    34.5190    91.1390 OW            1 RES     
    5614 HW1         11.5180    35.1640    91.4540 HW1           1 RES     
    5615 HW2         10.2360    34.9650    90.4630 HW2           1 RES     
    5616 OW          30.6170    19.6920    98.5500 OW            1 RES     
    5617 HW1         31.2170    19.8000    99.3420 HW1           1 RES     
    5618 HW2         30.0150    20.4880    98.4770 HW2           1 RES     
    5619 OW          29.4700    36.5760    96.8540 OW            1 RES     
    5620 HW1         30.3430    37.0260    96.6690 HW1           1 RES     
    5621 HW2         29.6130    35.5890    96.9320 HW2           1 RES     
    5622 OW           3.7460    30.9210    80.0830 OW            1 RES     
    5623 HW1          4.3990    30.3540    80.5830 HW1           1 RES     
    5624 HW2          3.4350    30.4310    79.2680 HW2           1 RES     
    5625 OW          28.5420    16.5780    99.0170 OW            1 RES     
    5626 HW1         29.4760    16.9090    99.1470 HW1           1 RES     
    5627 HW2         28.2590    16.7400    98.0710 HW2           1 RES     
    5628 OW          39.4790    23.9160    94.0250 OW            1 RES     
    5629 HW1         38.7940    23.9030    94.7530 HW1           1 RES     
    5630 HW2         39.3830    23.0950    93.4620 HW2           1 RES     
    5631 OW          30.1650    14.2930    95.1730 OW            1 RES     
    5632 HW1         29.3460    14.5720    95.6740 HW1           1 RES     
    5633 HW2         30.9010    14.0940    95.8210 HW2           1 RES     
    5634 OW          11.9830    22.0440    97.9890 OW            1 RES     
    5635 HW1         12.9430    21.7710    97.9540 HW1           1 RES     
    5636 HW2         11.8220    22.7840    97.3360 HW2           1 RES     
    5637 OW          11.6000    30.5610    98.2460 OW            1 RES     
    5638 HW1         11.9450    30.0530    97.4580 HW1           1 RES     
    5639 HW2         11.8850    31.5170    98.1790 HW2           1 RES     
    5640 OW          15.1520    35.8130    87.3460 OW            1 RES     
    5641 HW1         15.8180    35.7870    88.0900 HW1           1 RES     
    5642 HW2         15.6300    35.9200    86.4730 HW2           1 RES     
    5643 OW          13.4320    25.8310    88.8660 OW            1 RES     
    5644 HW1         14.2500    25.2580    88.8330 HW1           1 RES     
    5645 HW2         13.6960    26.7800    89.0440 HW2           1 RES     
    5646 OW          27.2640     7.8410    85.5810 OW            1 RES     
    5647 HW1         27.1200     7.2390    86.3650 HW1           1 RES     
    5648 HW2         27.8370     8.6140    85.8540 HW2           1 RES     
    5649 OW          29.1070     2.7550    81.6540 OW            1 RES     
    5650 HW1         29.1160     3.7380    81.8350 HW1           1 RES     
    5651 HW2         28.3820     2.5430    80.9990 HW2           1 RES     
    5652 OW          30.9750    29.4930    94.9710 OW            1 RES     
    5653 HW1         31.8840    29.8420    94.7470 HW1           1 RES     
    5654 HW2         31.0530    28.7750    95.6620 HW2           1 RES     
    5655 OW          25.0670     9.2450    85.3670 OW            1 RES     
    5656 HW1         24.3400     9.9300    85.4050 HW1           1 RES     
    5657 HW2         24.9760     8.7080    84.5280 HW2           1 RES     
    5658 OW           5.7820    18.1710    94.0650 OW            1 RES     
    5659 HW1          4.8160    17.9260    93.9920 HW1           1 RES     
    5660 HW2          5.8690    19.1650    94.1400 HW2           1 RES     
    5661 OW          19.7140    39.8130    84.1790 OW            1 RES     
    5662 HW1         20.2990    40.5050    84.6000 HW1           1 RES     
    5663 HW2         19.2250    40.2160    83.4050 HW2           1 RES     
    5664 OW           6.1220    34.0480    92.5490 OW            1 RES     
    5665 HW1          5.8370    33.1620    92.9130 HW1           1 RES     
    5666 HW2          5.3390    34.5030    92.1250 HW2           1 RES     
    5667 OW          32.4090    32.4140    85.7270 OW            1 RES     
    5668 HW1         33.0070    32.9420    85.1240 HW1           1 RES     
    5669 HW2         31.5120    32.8530    85.7750 HW2           1 RES     
    5670 OW          16.5600    14.8080    95.0170 OW            1 RES     
    5671 HW1         15.7170    14.7430    95.5510 HW1           1 RES     
    5672 HW2         17.0410    15.6520    95.2550 HW2           1 RES     
    5673 OW          15.1970    16.6580    94.6010 OW            1 RES     
    5674 HW1         15.2290    17.3610    93.8910 HW1           1 RES     
    5675 HW2         14.6160    16.9700    95.3530 HW2           1 RES     
    5676 OW           9.2860    34.9310    88.3470 OW            1 RES     
    5677 HW1          8.6670    34.1470    88.3190 HW1           1 RES     
    5678 HW2          8.7540    35.7740    88.4370 HW2           1 RES     
    5679 OW          26.6960    14.3360    91.4940 OW            1 RES     
    5680 HW1         25.9530    14.6920    92.0600 HW1           1 RES     
    5681 HW2         27.4750    14.9610    91.5330 HW2           1 RES     
    5682 OW           2.5980    27.8200    87.7700 OW            1 RES     
    5683 HW1          2.6230    27.9900    88.7550 HW1           1 RES     
    5684 HW2          2.5000    26.8390    87.6030 HW2           1 RES     
    5685 OW          14.4350     6.5870    79.6530 OW            1 RES     
    5686 HW1         13.7280     6.4500    78.9610 HW1           1 RES     
    5687 HW2         15.2380     7.0080    79.2310 HW2           1 RES     
    5688 OW          13.9000    39.5140    99.7870 OW            1 RES     
    5689 HW1         13.3170    38.9400   100.3620 HW1           1 RES     
    5690 HW2         14.4160    40.1490   100.3620 HW2           1 RES     
    5691 OW           8.0320    33.6690    97.7980 OW            1 RES     
    5692 HW1          8.2820    34.5950    98.0800 HW1           1 RES     
    5693 HW2          7.0390    33.5610    97.8490 HW2           1 RES     
    5694 OW          18.2570    20.8570    79.6580 OW            1 RES     
    5695 HW1         18.6910    21.3720    80.3970 HW1           1 RES     
    5696 HW2         17.3740    20.5050    79.9700 HW2           1 RES     
    5697 OW           3.3730    30.4580   100.2730 OW            1 RES     
    5698 HW1          3.1690    29.4840   100.3640 HW1           1 RES     
    5699 HW2          2.5360    30.9540   100.0390 HW2           1 RES     
    5700 OW           5.4340    28.3060    89.5250 OW            1 RES     
    5701 HW1          6.0910    28.2290    88.7760 HW1           1 RES     
    5702 HW2          4.6200    28.7930    89.2070 HW2           1 RES     
    5703 OW          31.8860    28.0700    84.8190 OW            1 RES     
    5704 HW1         32.5140    27.9000    85.5770 HW1           1 RES     
    5705 HW2         31.7380    29.0550    84.7220 HW2           1 RES     
    5706 OW          25.5580     9.8060    78.7340 OW            1 RES     
    5707 HW1         25.6300    10.8020    78.6950 HW1           1 RES     
    5708 HW2         26.4730     9.4040    78.7100 HW2           1 RES     
    5709 OW          17.1280    21.1220    94.2790 OW            1 RES     
    5710 HW1         17.2950    22.0960    94.4280 HW1           1 RES     
    5711 HW2         16.1430    20.9490    94.2750 HW2           1 RES     
    5712 OW          38.3480     9.3420    79.5260 OW            1 RES     
    5713 HW1         37.6860     9.0590    78.8320 HW1           1 RES     
    5714 HW2         38.4680     8.6060    80.1920 HW2           1 RES     
    5715 OW          34.2630     3.2530    92.4610 OW            1 RES     
    5716 HW1         34.4170     2.6370    93.2330 HW1           1 RES     
    5717 HW2         35.0840     3.8040    92.3050 HW2           1 RES     
    5718 OW          13.4060    15.2840    87.2870 OW            1 RES     
    5719 HW1         13.0210    14.6000    87.9070 HW1           1 RES     
    5720 HW2         12.8110    16.0870    87.2650 HW2           1 RES     
    5721 OW          16.1070    12.7370    90.0060 OW            1 RES     
    5722 HW1         15.9200    11.8290    89.6330 HW1           1 RES     
    5723 HW2         15.6240    13.4260    89.4650 HW2           1 RES     
    5724 OW          21.6860    16.7570    89.0810 OW            1 RES     
    5725 HW1         20.7780    17.1420    88.9200 HW1           1 RES     
    5726 HW2         22.3680    17.4880    89.0570 HW2           1 RES     
    5727 OW          25.4720    30.7150    81.0670 OW            1 RES     
    5728 HW1         24.8560    29.9760    80.7980 HW1           1 RES     
    5729 HW2         25.3080    30.9540    82.0240 HW2           1 RES     
    5730 OW          24.1030    16.8820    87.3800 OW            1 RES     
    5731 HW1         24.7090    17.2960    86.7020 HW1           1 RES     
    5732 HW2         24.4120    17.1280    88.2990 HW2           1 RES     
    5733 OW           4.0880    20.9870    81.7070 OW            1 RES     
    5734 HW1          4.9720    21.2270    81.3070 HW1           1 RES     
    5735 HW2          3.6640    21.8050    82.0950 HW2           1 RES     
    5736 OW          23.9750    21.4790    85.4200 OW            1 RES     
    5737 HW1         24.4110    20.5960    85.2460 HW1           1 RES     
    5738 HW2         23.2180    21.6100    84.7790 HW2           1 RES     
    5739 OW          37.0250    31.2920    99.3570 OW            1 RES     
    5740 HW1         36.5610    31.6050   100.1860 HW1           1 RES     
    5741 HW2         37.6400    32.0080    99.0290 HW2           1 RES     
    5742 OW          18.4690    19.0600    92.0620 OW            1 RES     
    5743 HW1         18.1640    18.4190    91.3590 HW1           1 RES     
    5744 HW2         19.0330    19.7720    91.6440 HW2           1 RES     
    5745 OW          17.7320    40.8580    97.6450 OW            1 RES     
    5746 HW1         18.6760    40.9270    97.3220 HW1           1 RES     
    5747 HW2         17.7150    40.9260    98.6420 HW2           1 RES     
    5748 OW           7.7010    38.0100    97.1140 OW            1 RES     
    5749 HW1          7.4550    37.0610    96.9180 HW1           1 RES     
    5750 HW2          7.0810    38.3780    97.8080 HW2           1 RES     
    5751 OW          18.3990    22.5760    86.9900 OW            1 RES     
    5752 HW1         19.1900    23.1780    86.8870 HW1           1 RES     
    5753 HW2         18.6110    21.6780    86.6040 HW2           1 RES     
    5754 OW          35.6940    37.5790    92.9980 OW            1 RES     
    5755 HW1         35.6980    36.9080    93.7390 HW1           1 RES     
    5756 HW2         35.7060    37.1050    92.1170 HW2           1 RES     
    5757 OW          33.7260    27.7820    94.5360 OW            1 RES     
    5758 HW1         33.7270    28.4880    93.8280 HW1           1 RES     
    5759 HW2         32.8370    27.3230    94.5480 HW2           1 RES     
    5760 OW           9.7140    12.1550    80.9670 OW            1 RES     
    5761 HW1         10.7030    12.0120    80.9610 HW1           1 RES     
    5762 HW2          9.5180    13.1350    80.9530 HW2           1 RES     
    5763 OW          35.0260    14.8260    86.7010 OW            1 RES     
    5764 HW1         34.7950    15.1580    87.6150 HW1           1 RES     
    5765 HW2         34.1870    14.6600    86.1830 HW2           1 RES     
    5766 OW          29.6640     5.5700    86.6850 OW            1 RES     
    5767 HW1         28.6760     5.7220    86.7050 HW1           1 RES     
    5768 HW2         29.9600     5.4320    85.7390 HW2           1 RES     
    5769 OW          35.3950     6.9690    85.2290 OW            1 RES     
    5770 HW1         35.4940     6.3020    84.4920 HW1           1 RES     
    5771 HW2         34.6470     7.5960    85.0130 HW2           1 RES     
    5772 OW          36.6410    19.8400    82.2350 OW            1 RES     
    5773 HW1         35.8170    19.4430    82.6390 HW1           1 RES     
    5774 HW2         37.0470    20.4910    82.8770 HW2           1 RES     
    5775 OW           8.9880    15.2080    84.8110 OW            1 RES     
    5776 HW1          9.7820    15.7650    85.0510 HW1           1 RES     
    5777 HW2          9.2410    14.2400    84.8310 HW2           1 RES     
    5778 OW          16.8150    34.9630    84.4520 OW            1 RES     
    5779 HW1         17.8020    34.8080    84.4340 HW1           1 RES     
    5780 HW2         16.6320    35.9440    84.5150 HW2           1 RES     
    5781 OW           4.5940    25.6910    85.5070 OW            1 RES     
    5782 HW1          3.8480    25.9050    86.1360 HW1           1 RES     
    5783 HW2          5.4300    26.1480    85.8110 HW2           1 RES     
    5784 OW          16.2100    35.2040    82.2660 OW            1 RES     
    5785 HW1         15.3010    35.2920    82.6700 HW1           1 RES     
    5786 HW2         16.5070    34.2500    82.3160 HW2           1 RES     
    5787 OW          17.3730    26.9160    95.5240 OW            1 RES     
    5788 HW1         18.2560    27.2870    95.2380 HW1           1 RES     
    5789 HW2         17.3950    25.9180    95.4660 HW2           1 RES     
    5790 OW           7.5980    21.7010   100.3640 OW            1 RES     
    5791 HW1          7.7950    20.7340   100.2100 HW1           1 RES     
    5792 HW2          7.6380    22.1930    99.4940 HW2           1 RES     
    5793 OW          13.5930    15.3620    92.8060 OW            1 RES     
    5794 HW1         13.6280    15.2910    93.8020 HW1           1 RES     
    5795 HW2         12.7990    15.9080    92.5380 HW2           1 RES     
    5796 OW          29.6610    23.8510    86.5610 OW            1 RES     
    5797 HW1         28.9580    23.1430    86.6230 HW1           1 RES     
    5798 HW2         30.4810    23.5520    87.0490 HW2           1 RES     
    5799 OW          19.5590     3.2510    99.5430 OW            1 RES     
    5800 HW1         20.0120     3.5430    98.7010 HW1           1 RES     
    5801 HW2         18.7730     3.8420    99.7220 HW2           1 RES     
    5802 OW          36.5570    16.8440    98.3990 OW            1 RES     
    5803 HW1         37.3240    16.8420    97.7580 HW1           1 RES     
    5804 HW2         35.8020    17.3760    98.0140 HW2           1 RES     
    5805 OW           9.5860     3.4170    79.9620 OW            1 RES     
    5806 HW1         10.1590     2.6630    79.6440 HW1           1 RES     
    5807 HW2          9.0050     3.1010    80.7130 HW2           1 RES     
    5808 OW          10.8910    10.0640    97.3910 OW            1 RES     
    5809 HW1         10.1860    10.7460    97.2020 HW1           1 RES     
    5810 HW2         11.7490    10.5240    97.6170 HW2           1 RES     
    5811 OW          37.4860    32.5330    87.2240 OW            1 RES     
    5812 HW1         38.0250    31.7740    86.8590 HW1           1 RES     
    5813 HW2         36.5710    32.2070    87.4640 HW2           1 RES     
    5814 OW          13.8350    18.7630    91.6400 OW            1 RES     
    5815 HW1         13.5050    17.8510    91.3990 HW1           1 RES     
    5816 HW2         14.6360    18.6820    92.2340 HW2           1 RES     
    5817 OW          36.4880    20.2920    84.9960 OW            1 RES     
    5818 HW1         36.9890    19.6580    85.5840 HW1           1 RES     
    5819 HW2         35.5250    20.3060    85.2640 HW2           1 RES     
    5820 OW           5.0050    15.2790    81.5340 OW            1 RES     
    5821 HW1          5.4020    14.3670    81.6360 HW1           1 RES     
    5822 HW2          4.6470    15.5880    82.4150 HW2           1 RES     
    5823 OW          17.4330    34.6350    79.2530 OW            1 RES     
    5824 HW1         17.2540    34.2130    80.1420 HW1           1 RES     
    5825 HW2         18.1760    34.1460    78.7950 HW2           1 RES     
    5826 OW          11.7650     7.2730    85.7390 OW            1 RES     
    5827 HW1         11.1950     7.4010    84.9280 HW1           1 RES     
    5828 HW2         11.2160     6.8760    86.4740 HW2           1 RES     
    5829 OW           3.6290     3.6630    97.1390 OW            1 RES     
    5830 HW1          3.5540     2.8520    96.5600 HW1           1 RES     
    5831 HW2          4.5020     3.6460    97.6270 HW2           1 RES     
    5832 OW           4.8190    33.2270    85.5470 OW            1 RES     
    5833 HW1          4.2140    33.4230    84.7750 HW1           1 RES     
    5834 HW2          5.7050    33.6660    85.3970 HW2           1 RES     
    5835 OW          28.1500     3.7990    84.5210 OW            1 RES     
    5836 HW1         27.7890     3.7710    83.5890 HW1           1 RES     
    5837 HW2         27.8660     4.6500    84.9630 HW2           1 RES     
    5838 OW          24.7760     7.7260    89.9880 OW            1 RES     
    5839 HW1         24.4150     7.0760    89.3200 HW1           1 RES     
    5840 HW2         24.9960     8.5880    89.5310 HW2           1 RES     
    5841 OW          25.1830    33.4740    87.8350 OW            1 RES     
    5842 HW1         25.0470    33.9530    88.7020 HW1           1 RES     
    5843 HW2         24.6910    32.6030    87.8540 HW2           1 RES     
    5844 OW          14.1950     6.9550    81.9780 OW            1 RES     
    5845 HW1         14.4550     5.9920    81.9270 HW1           1 RES     
    5846 HW2         14.6940     7.3970    82.7250 HW2           1 RES     
    5847 OW          38.2630     6.5370    79.4730 OW            1 RES     
    5848 HW1         37.7290     6.8620    78.6930 HW1           1 RES     
    5849 HW2         38.2770     5.5360    79.4740 HW2           1 RES     
    5850 OW          39.8360    21.1670    91.6860 OW            1 RES     
    5851 HW1         40.1580    22.1130    91.6520 HW1           1 RES     
    5852 HW2         40.1170    20.6890    90.8530 HW2           1 RES     
    5853 OW           8.8920    36.9180    90.6320 OW            1 RES     
    5854 HW1          9.3980    37.7100    90.2930 HW1           1 RES     
    5855 HW2          7.9980    36.8750    90.1850 HW2           1 RES     
    5856 OW           8.7480    36.1790    82.9110 OW            1 RES     
    5857 HW1          9.7460    36.1480    82.8740 HW1           1 RES     
    5858 HW2          8.4450    37.1300    82.9690 HW2           1 RES     
    5859 OW          11.0500     4.0830    94.8870 OW            1 RES     
    5860 HW1         10.2070     3.5460    94.8760 HW1           1 RES     
    5861 HW2         10.8360     5.0440    94.7150 HW2           1 RES     
    5862 OW          28.0040    37.4070    88.3220 OW            1 RES     
    5863 HW1         27.8960    36.6110    88.9160 HW1           1 RES     
    5864 HW2         27.1930    37.5030    87.7440 HW2           1 RES     
    5865 OW          26.4310    31.5350    92.8410 OW            1 RES     
    5866 HW1         26.0090    31.8930    92.0080 HW1           1 RES     
    5867 HW2         25.7320    31.1030    93.4110 HW2           1 RES     
    5868 OW          29.5570    23.9470    97.3620 OW            1 RES     
    5869 HW1         30.2340    23.2520    97.1210 HW1           1 RES     
    5870 HW2         29.9880    24.6520    97.9240 HW2           1 RES     
    5871 OW          17.6170     6.2520   100.2420 OW            1 RES     
    5872 HW1         18.5570     5.9350   100.3630 HW1           1 RES     
    5873 HW2         17.0060     5.4640   100.1670 HW2           1 RES     
    5874 OW          12.7000     5.2920    92.6560 OW            1 RES     
    5875 HW1         12.5430     4.3160    92.5070 HW1           1 RES     
    5876 HW2         11.8230     5.7730    92.6690 HW2           1 RES     
    5877 OW          28.8020    39.0390    97.0770 OW            1 RES     
    5878 HW1         29.2390    38.5380    97.8240 HW1           1 RES     
    5879 HW2         29.3940    39.0190    96.2710 HW2           1 RES     
    5880 OW          22.6140    24.4010    87.7990 OW            1 RES     
    5881 HW1         21.7020    24.8090    87.7740 HW1           1 RES     
    5882 HW2         22.5350    23.4050    87.7720 HW2           1 RES     
    5883 OW          38.6310     4.7770    91.5730 OW            1 RES     
    5884 HW1         37.9330     5.4450    91.8290 HW1           1 RES     
    5885 HW2         39.4700     5.2540    91.3100 HW2           1 RES     
    5886 OW          14.2750    22.6580    84.0270 OW            1 RES     
    5887 HW1         14.2030    21.6610    84.0250 HW1           1 RES     
    5888 HW2         15.2390    22.9230    84.0270 HW2           1 RES     
    5889 OW          22.6400    18.3450    99.1760 OW            1 RES     
    5890 HW1         23.0770    18.6540    98.3320 HW1           1 RES     
    5891 HW2         22.8090    17.3670    99.3010 HW2           1 RES     
    5892 OW          36.5760     3.7620    97.2970 OW            1 RES     
    5893 HW1         35.6120     4.0240    97.3200 HW1           1 RES     
    5894 HW2         36.6500     2.7640    97.2940 HW2           1 RES     
    5895 OW          13.2540    11.4400    91.0330 OW            1 RES     
    5896 HW1         14.0060    10.8220    91.2620 HW1           1 RES     
    5897 HW2         13.4660    12.3600    91.3630 HW2           1 RES     
    5898 OW          22.4150    25.9550    85.6620 OW            1 RES     
    5899 HW1         22.8810    26.1950    84.8120 HW1           1 RES     
    5900 HW2         23.0420    26.0740    86.4320 HW2           1 RES     
    5901 OW          18.1000    18.2130    95.6870 OW            1 RES     
    5902 HW1         18.0720    18.9970    95.0680 HW1           1 RES     
    5903 HW2         17.6980    18.4670    96.5670 HW2           1 RES     
    5904 OW          16.6150    28.3630    82.4510 OW            1 RES     
    5905 HW1         17.1290    28.8410    81.7390 HW1           1 RES     
    5906 HW2         15.6990    28.7580    82.5230 HW2           1 RES     
    5907 OW          17.2840    38.7280    87.5410 OW            1 RES     
    5908 HW1         18.1620    38.2520    87.4970 HW1           1 RES     
    5909 HW2         17.4210    39.6490    87.9050 HW2           1 RES     
    5910 OW          15.5570    20.7920    86.7530 OW            1 RES     
    5911 HW1         14.9740    21.1310    86.0160 HW1           1 RES     
    5912 HW2         16.4530    21.2340    86.7000 HW2           1 RES     
    5913 OW           5.1060    39.1430    99.6060 OW            1 RES     
    5914 HW1          5.2750    40.0880    99.3280 HW1           1 RES     
    5915 HW2          4.8410    38.6020    98.8070 HW2           1 RES     
    5916 OW          21.2080    27.1270    93.5300 OW            1 RES     
    5917 HW1         20.2360    27.3100    93.3860 HW1           1 RES     
    5918 HW2         21.4140    26.1850    93.2650 HW2           1 RES     
    5919 OW           4.1570    26.3590    80.3430 OW            1 RES     
    5920 HW1          5.0390    26.2360    80.7960 HW1           1 RES     
    5921 HW2          4.2700    26.9540    79.5470 HW2           1 RES     
    5922 OW           5.5120    40.1500    84.6690 OW            1 RES     
    5923 HW1          5.8830    40.4740    83.7990 HW1           1 RES     
    5924 HW2          6.1180    39.4510    85.0500 HW2           1 RES     
    5925 OW          40.2890    17.8020    90.2910 OW            1 RES     
    5926 HW1         39.4360    17.8710    89.7750 HW1           1 RES     
    5927 HW2         40.9270    18.5060    89.9790 HW2           1 RES     
    5928 OW          26.3130    10.8620    96.3800 OW            1 RES     
    5929 HW1         26.0290    11.7810    96.1100 HW1           1 RES     
    5930 HW2         27.0840    10.9220    97.0130 HW2           1 RES     
    5931 OW          27.8140    36.4990    83.5710 OW            1 RES     
    5932 HW1         27.2190    35.6980    83.5110 HW1           1 RES     
    5933 HW2         27.2960    37.3190    83.3260 HW2           1 RES     
    5934 OW          22.7380    36.9210    80.1030 OW            1 RES     
    5935 HW1         23.3120    36.6810    79.3210 HW1           1 RES     
    5936 HW2         23.1250    36.5230    80.9350 HW2           1 RES     
    5937 OW          31.9420    14.5710    93.3490 OW            1 RES     
    5938 HW1         32.9410    14.5680    93.3610 HW1           1 RES     
    5939 HW2         31.6010    13.6730    93.6270 HW2           1 RES     
    5940 OW          39.2040    29.7990   100.3630 OW            1 RES     
    5941 HW1         40.2020    29.7610   100.3630 HW1           1 RES     
    5942 HW2         38.9060    30.7540   100.3630 HW2           1 RES     
    5943 OW          15.6400    10.6040    92.7190 OW            1 RES     
    5944 HW1         16.4230    10.9520    92.2040 HW1           1 RES     
    5945 HW2         15.9650    10.1060    93.5240 HW2           1 RES     
    5946 OW          26.1420     6.2380    97.2110 OW            1 RES     
    5947 HW1         26.2190     5.9600    96.2540 HW1           1 RES     
    5948 HW2         25.5150     5.6220    97.6880 HW2           1 RES     
    5949 OW          22.4920    25.2810    96.1100 OW            1 RES     
    5950 HW1         22.2950    24.5400    96.7500 HW1           1 RES     
    5951 HW2         21.6660    25.8260    95.9640 HW2           1 RES     
    5952 OW          31.0660     7.6280   100.3640 OW            1 RES     
    5953 HW1         30.2700     8.0760    99.9580 HW1           1 RES     
    5954 HW2         31.8220     7.6340    99.7100 HW2           1 RES     
    5955 OW          17.8670    13.5300    86.9740 OW            1 RES     
    5956 HW1         17.0110    14.0300    87.0980 HW1           1 RES     
    5957 HW2         17.6810    12.5480    86.9580 HW2           1 RES     
    5958 OW          24.8580    36.7450    88.8110 OW            1 RES     
    5959 HW1         25.7260    36.5520    89.2690 HW1           1 RES     
    5960 HW2         25.0370    37.0950    87.8920 HW2           1 RES     
    5961 OW          38.7260    32.8820    89.1780 OW            1 RES     
    5962 HW1         38.8290    32.0220    89.6770 HW1           1 RES     
    5963 HW2         37.7930    33.2250    89.2900 HW2           1 RES     
    5964 OW          27.1600    19.4660    90.9640 OW            1 RES     
    5965 HW1         26.4340    19.6680    91.6210 HW1           1 RES     
    5966 HW2         26.7810    18.9520    90.1950 HW2           1 RES     
    5967 OW           6.9050     2.8800    86.9420 OW            1 RES     
    5968 HW1          7.8180     2.5000    87.0810 HW1           1 RES     
    5969 HW2          6.9800     3.7890    86.5310 HW2           1 RES     
    5970 OW          25.7560     4.7890    99.7100 OW            1 RES     
    5971 HW1         26.7360     4.6820    99.5440 HW1           1 RES     
    5972 HW2         25.3450     3.8920    99.8750 HW2           1 RES     
    5973 OW          20.0030    12.1510    87.0750 OW            1 RES     
    5974 HW1         20.3520    11.2770    87.4130 HW1           1 RES     
    5975 HW2         19.7160    12.7170    87.8470 HW2           1 RES     
    5976 OW           8.2960    20.2690    97.1440 OW            1 RES     
    5977 HW1          8.2900    20.6490    98.0680 HW1           1 RES     
    5978 HW2          9.1170    19.7130    97.0160 HW2           1 RES     
    5979 OW          19.1230     7.5070    90.6640 OW            1 RES     
    5980 HW1         18.8690     8.1280    89.9240 HW1           1 RES     
    5981 HW2         18.8890     7.9210    91.5430 HW2           1 RES     
    5982 OW           6.8710    19.8620    79.6900 OW            1 RES     
    5983 HW1          7.7000    20.4190    79.7290 HW1           1 RES     
    5984 HW2          6.9970    19.0370    80.2420 HW2           1 RES     
    5985 OW           5.7500    38.6140    80.8480 OW            1 RES     
    5986 HW1          5.1370    39.0270    81.5210 HW1           1 RES     
    5987 HW2          6.1940    37.8120    81.2480 HW2           1 RES     
    5988 OW           5.4090     6.0340    88.3600 OW            1 RES     
    5989 HW1          6.3920     6.2110    88.3980 HW1           1 RES     
    5990 HW2          5.2480     5.0470    88.3280 HW2           1 RES     
    5991 OW          37.0700    26.4510    98.0750 OW            1 RES     
    5992 HW1         36.1980    26.8940    97.8680 HW1           1 RES     
    5993 HW2         37.3190    25.8360    97.3270 HW2           1 RES     
    5994 OW          35.7640    32.8360    83.9980 OW            1 RES     
    5995 HW1         34.9490    33.4090    84.0730 HW1           1 RES     
    5996 HW2         35.8680    32.5250    83.0530 HW2           1 RES     
    5997 OW           3.8790    30.4970    95.7230 OW            1 RES     
    5998 HW1          4.3080    29.8260    96.3270 HW1           1 RES     
    5999 HW2          4.2910    31.3950    95.8760 HW2           1 RES     
    6000 OW          26.1890    14.7680    89.3950 OW            1 RES     
    6001 HW1         25.4730    15.2360    88.8780 HW1           1 RES     
    6002 HW2         26.4050    13.8970    88.9530 HW2           1 RES     
    6003 OW          26.1900    29.1900    84.5130 OW            1 RES     
    6004 HW1         25.5430    29.4860    85.2140 HW1           1 RES     
    6005 HW2         26.6640    29.9870    84.1370 HW2           1 RES     
    6006 OW          12.1950    31.5700   100.3570 OW            1 RES     
    6007 HW1         11.2290    31.3290   100.2740 HW1           1 RES     
    6008 HW2         12.7580    30.7810   100.1070 HW2           1 RES     
    6009 OW          16.0580    22.0020    81.0340 OW            1 RES     
    6010 HW1         16.9260    22.0930    81.5200 HW1           1 RES     
    6011 HW2         15.6640    21.1010    81.2180 HW2           1 RES     
    6012 OW          31.9220    13.1070    98.0360 OW            1 RES     
    6013 HW1         32.8520    13.4290    98.2100 HW1           1 RES     
    6014 HW2         31.2660    13.7840    98.3700 HW2           1 RES     
    6015 OW           4.2310    21.2190    89.8710 OW            1 RES     
    6016 HW1          3.2890    21.2140    90.2050 HW1           1 RES     
    6017 HW2          4.3530    20.4850    89.2020 HW2           1 RES     
    6018 OW          29.8070     2.6010    93.1080 OW            1 RES     
    6019 HW1         29.3380     3.2060    93.7520 HW1           1 RES     
    6020 HW2         30.7640     2.5000    93.3810 HW2           1 RES     
    6021 OW           7.8040    32.3290    91.8280 OW            1 RES     
    6022 HW1          7.5980    31.3580    91.7110 HW1           1 RES     
    6023 HW2          7.9420    32.5270    92.7990 HW2           1 RES     
    6024 OW          30.2980    36.7490    91.9050 OW            1 RES     
    6025 HW1         30.5860    37.3760    92.6270 HW1           1 RES     
    6026 HW2         29.7000    36.0460    92.2910 HW2           1 RES     
    6027 OW          19.2430    11.7830    95.9460 OW            1 RES     
    6028 HW1         19.7150    11.1040    95.3860 HW1           1 RES     
    6029 HW2         18.8520    12.4900    95.3560 HW2           1 RES     
    6030 OW          19.1560    25.0010    84.9890 OW            1 RES     
    6031 HW1         19.4020    24.0390    84.8740 HW1           1 RES     
    6032 HW2         19.2080    25.2450    85.9580 HW2           1 RES     
    6033 OW          26.5010    36.2840    95.7320 OW            1 RES     
    6034 HW1         26.8080    37.2110    95.5230 HW1           1 RES     
    6035 HW2         27.2620    35.6450    95.6140 HW2           1 RES     
    6036 OW          33.3120    16.0140    96.8120 OW            1 RES     
    6037 HW1         34.0540    16.1560    97.4660 HW1           1 RES     
    6038 HW2         33.1190    15.0360    96.7320 HW2           1 RES     
    6039 OW          13.4750    14.5800    81.8310 OW            1 RES     
    6040 HW1         12.8220    14.0470    82.3680 HW1           1 RES     
    6041 HW2         14.1990    14.9230    82.4310 HW2           1 RES     
    6042 OW          27.5060     8.1350    93.2390 OW            1 RES     
    6043 HW1         26.5980     7.7460    93.0870 HW1           1 RES     
    6044 HW2         27.6060     8.9720    92.6990 HW2           1 RES     
    6045 OW          27.7370    24.8070    79.9830 OW            1 RES     
    6046 HW1         28.2110    24.0850    79.4800 HW1           1 RES     
    6047 HW2         27.8660    24.6700    80.9650 HW2           1 RES     
    6048 OW          30.0820    35.2350   100.3640 OW            1 RES     
    6049 HW1         29.0960    35.2240   100.1980 HW1           1 RES     
    6050 HW2         30.5600    35.4790    99.5200 HW2           1 RES     
    6051 OW          26.4260    40.3190    96.5660 OW            1 RES     
    6052 HW1         25.6320    40.9250    96.6110 HW1           1 RES     
    6053 HW2         26.1230    39.3670    96.6200 HW2           1 RES     
    6054 OW          13.6600     8.0700    94.2460 OW            1 RES     
    6055 HW1         14.5270     8.5430    94.0990 HW1           1 RES     
    6056 HW2         13.1100     8.5780    94.9100 HW2           1 RES     
    6057 OW          27.4170    34.6410    88.0610 OW            1 RES     
    6058 HW1         26.6250    35.1880    87.7950 HW1           1 RES     
    6059 HW2         27.4810    33.8360    87.4710 HW2           1 RES     
    6060 OW           4.9500    13.5070    84.9460 OW            1 RES     
    6061 HW1          5.4890    14.0340    84.2890 HW1           1 RES     
    6062 HW2          4.1590    14.0450    85.2370 HW2           1 RES     
    6063 OW           2.5080    29.9690    91.5160 OW            1 RES     
    6064 HW1          2.5970    30.4720    92.3750 HW1           1 RES     
    6065 HW2          2.6530    30.5930    90.7470 HW2           1 RES     
    6066 OW          36.6140     4.7540    87.3500 OW            1 RES     
    6067 HW1         37.5610     4.4620    87.2220 HW1           1 RES     
    6068 HW2         36.5570     5.7490    87.2660 HW2           1 RES     
    6069 OW          23.7710    15.4470    94.5490 OW            1 RES     
    6070 HW1         23.3160    16.3350    94.4880 HW1           1 RES     
    6071 HW2         24.7500    15.5610    94.3760 HW2           1 RES     
    6072 OW           8.1410    12.6620    86.6180 OW            1 RES     
    6073 HW1          9.1380    12.6040    86.5640 HW1           1 RES     
    6074 HW2          7.8500    13.5960    86.4090 HW2           1 RES     
    6075 OW           8.4570    11.9860    95.2690 OW            1 RES     
    6076 HW1          8.5970    12.0280    94.2810 HW1           1 RES     
    6077 HW2          9.3280    12.1440    95.7360 HW2           1 RES     
    6078 OW          26.4920     2.6240    92.5760 OW            1 RES     
    6079 HW1         26.6470     2.5030    91.5960 HW1           1 RES     
    6080 HW2         27.2380     3.1640    92.9680 HW2           1 RES     
    6081 OW          24.1700    28.5110    89.4860 OW            1 RES     
    6082 HW1         23.8980    29.4710    89.4210 HW1           1 RES     
    6083 HW2         25.1490    28.4290    89.2970 HW2           1 RES     
    6084 OW           5.5870    19.2290    99.8600 OW            1 RES     
    6085 HW1          6.3400    18.7990   100.3580 HW1           1 RES     
    6086 HW2          5.6740    20.2240    99.9180 HW2           1 RES     
    6087 OW           7.9440    38.0420    94.9110 OW            1 RES     
    6088 HW1          8.7400    37.4380    94.8880 HW1           1 RES     
    6089 HW2          7.1110    37.5020    94.7890 HW2           1 RES     
    6090 OW           5.0330    22.6160   100.0430 OW            1 RES     
    6091 HW1          5.4600    22.2930    99.1990 HW1           1 RES     
    6092 HW2          4.3700    21.9390   100.3620 HW2           1 RES     
    6093 OW          16.8270     4.2110    98.3680 OW            1 RES     
    6094 HW1         17.2220     3.2990    98.2580 HW1           1 RES     
    6095 HW2         17.1790     4.8150    97.6530 HW2           1 RES     
    6096 OW          38.0850    36.9960    90.8780 OW            1 RES     
    6097 HW1         37.2360    37.3410    90.4810 HW1           1 RES     
    6098 HW2         38.0340    37.0480    91.8760 HW2           1 RES     
    6099 OW          11.8570     9.3980    90.1760 OW            1 RES     
    6100 HW1         11.6890    10.3370    89.8760 HW1           1 RES     
    6101 HW2         11.1630     9.1310    90.8440 HW2           1 RES     
    6102 OW          37.4610     8.7090    85.6230 OW            1 RES     
    6103 HW1         37.6140     9.3490    86.3740 HW1           1 RES     
    6104 HW2         38.3330     8.3080    85.3420 HW2           1 RES     
    6105 OW          20.7120    37.3750    91.8020 OW            1 RES     
    6106 HW1         20.3650    36.4550    91.6180 HW1           1 RES     
    6107 HW2         19.9840    38.0430    91.6460 HW2           1 RES     
    6108 OW           2.8890     5.5680    87.0480 OW            1 RES     
    6109 HW1          3.0180     5.0860    87.9140 HW1           1 RES     
    6110 HW2          2.5000     6.4720    87.2240 HW2           1 RES     
    6111 OW          35.0220     6.1450    79.4700 OW            1 RES     
    6112 HW1         35.8250     6.6560    79.7750 HW1           1 RES     
    6113 HW2         34.8290     5.4090    80.1190 HW2           1 RES     
    6114 OW           8.3990    27.4560    83.6630 OW            1 RES     
    6115 HW1          8.0060    26.5370    83.6850 HW1           1 RES     
    6116 HW2          9.3970    27.3930    83.6540 HW2           1 RES     
    6117 OW          33.2710    10.2090    82.5140 OW            1 RES     
    6118 HW1         33.3320     9.2800    82.8790 HW1           1 RES     
    6119 HW2         34.1590    10.6610    82.6020 HW2           1 RES     
    6120 OW          37.0940    40.2080    97.7990 OW            1 RES     
    6121 HW1         36.5870    40.9270    98.2750 HW1           1 RES     
    6122 HW2         36.7540    40.1250    96.8620 HW2           1 RES     
    6123 OW           6.7020    34.8670    94.8230 OW            1 RES     
    6124 HW1          7.0050    35.3080    95.6670 HW1           1 RES     
    6125 HW2          6.9470    35.4400    94.0400 HW2           1 RES     
    6126 OW          32.5270    22.9960    94.2950 OW            1 RES     
    6127 HW1         32.6240    22.0020    94.2780 HW1           1 RES     
    6128 HW2         31.6160    23.2480    93.9670 HW2           1 RES     
    6129 OW          23.7790    23.6670    85.3190 OW            1 RES     
    6130 HW1         22.8150    23.7940    85.5500 HW1           1 RES     
    6131 HW2         24.2770    24.5180    85.4870 HW2           1 RES     
    6132 OW          32.5750    24.8040    97.8040 OW            1 RES     
    6133 HW1         32.3060    23.8900    97.5000 HW1           1 RES     
    6134 HW2         32.0440    25.4910    97.3080 HW2           1 RES     
    6135 OW           2.6440    15.9890    96.2170 OW            1 RES     
    6136 HW1          2.5000    16.9220    95.8890 HW1           1 RES     
    6137 HW2          3.5840    15.8910    96.5440 HW2           1 RES     
    6138 OW          18.2750    10.3630    88.2630 OW            1 RES     
    6139 HW1         19.0620     9.7510    88.3340 HW1           1 RES     
    6140 HW2         18.4470    11.1910    88.7970 HW2           1 RES     
    6141 OW          19.4840    19.6900    96.9600 OW            1 RES     
    6142 HW1         19.7640    20.5420    96.5180 HW1           1 RES     
    6143 HW2         19.9970    18.9260    96.5670 HW2           1 RES     
    6144 OW          32.4330    13.3110    91.6140 OW            1 RES     
    6145 HW1         32.9720    12.5290    91.3020 HW1           1 RES     
    6146 HW2         32.7950    14.1490    91.2060 HW2           1 RES     
    6147 OW          34.7020     8.3540    94.6870 OW            1 RES     
    6148 HW1         35.2640     8.7170    95.4290 HW1           1 RES     
    6149 HW2         35.2020     7.6280    94.2140 HW2           1 RES     
    6150 OW          14.7380     8.3850    85.0840 OW            1 RES     
    6151 HW1         14.0080     7.7450    85.3220 HW1           1 RES     
    6152 HW2         15.0520     8.8560    85.9090 HW2           1 RES     
    6153 OW          30.7640     8.9350    90.0100 OW            1 RES     
    6154 HW1         30.1480     8.3340    90.5170 HW1           1 RES     
    6155 HW2         30.8580     8.6020    89.0710 HW2           1 RES     
    6156 OW           5.4510     8.0770    85.0380 OW            1 RES     
    6157 HW1          5.3180     7.1580    84.6680 HW1           1 RES     
    6158 HW2          5.2150     8.0840    86.0100 HW2           1 RES     
    6159 OW          34.0200     3.8200    89.7330 OW            1 RES     
    6160 HW1         34.5580     4.3720    89.0970 HW1           1 RES     
    6161 HW2         34.3120     2.8650    89.6740 HW2           1 RES     
    6162 OW          12.5050    17.6300    88.8550 OW            1 RES     
    6163 HW1         12.3520    18.6050    89.0140 HW1           1 RES     
    6164 HW2         13.4750    17.4200    88.9770 HW2           1 RES     
    6165 OW          19.8590    20.6050    99.7360 OW            1 RES     
    6166 HW1         20.1850    21.4780   100.0970 HW1           1 RES     
    6167 HW2         18.9570    20.4020   100.1180 HW2           1 RES     
    6168 OW           9.6190    35.5260    99.7610 OW            1 RES     
    6169 HW1         10.3510    36.1730    99.5500 HW1           1 RES     
    6170 HW2          8.7600    36.0220    99.8850 HW2           1 RES     
    6171 OW          29.6820    33.6010    95.9940 OW            1 RES     
    6172 HW1         29.3030    32.7800    96.4210 HW1           1 RES     
    6173 HW2         29.7810    33.4500    95.0100 HW2           1 RES     
    6174 OW           8.8600     5.9900    88.1010 OW            1 RES     
    6175 HW1          8.7440     5.0070    88.2420 HW1           1 RES     
    6176 HW2          8.7480     6.4680    88.9720 HW2           1 RES     
    6177 OW          24.8150    35.1940    85.3600 OW            1 RES     
    6178 HW1         24.1690    35.9390    85.1910 HW1           1 RES     
    6179 HW2         24.9590    35.0950    86.3440 HW2           1 RES     
    6180 OW          39.5440    34.8950    91.5060 OW            1 RES     
    6181 HW1         40.1700    35.5560    91.0940 HW1           1 RES     
    6182 HW2         38.6860    34.8830    90.9930 HW2           1 RES     
    6183 OW          13.0650    11.9110    88.8820 OW            1 RES     
    6184 HW1         13.9920    12.1860    88.6290 HW1           1 RES     
    6185 HW2         12.5890    12.6860    89.3000 HW2           1 RES     
    6186 OW          17.8880    11.2900    84.2650 OW            1 RES     
    6187 HW1         18.5090    12.0690    84.3420 HW1           1 RES     
    6188 HW2         16.9560    11.6190    84.1090 HW2           1 RES     
    6189 OW           5.2960    19.4100    83.5610 OW            1 RES     
    6190 HW1          5.2930    19.0940    84.5100 HW1           1 RES     
    6191 HW2          5.1620    20.4010    83.5390 HW2           1 RES     
    6192 OW          20.2250     8.1130    93.6610 OW            1 RES     
    6193 HW1         19.9480     8.9840    94.0640 HW1           1 RES     
    6194 HW2         20.9350     8.2740    92.9750 HW2           1 RES     
    6195 OW          25.9410     5.7020    84.7910 OW            1 RES     
    6196 HW1         25.5640     6.6210    84.9020 HW1           1 RES     
    6197 HW2         26.0590     5.5040    83.8180 HW2           1 RES     
    6198 OW          17.6710     7.8430    94.5500 OW            1 RES     
    6199 HW1         17.4620     6.9990    95.0420 HW1           1 RES     
    6200 HW2         17.9180     7.6270    93.6050 HW2           1 RES     
    6201 OW          29.7120    29.9540    82.0150 OW            1 RES     
    6202 HW1         29.3410    30.3940    82.8320 HW1           1 RES     
    6203 HW2         30.6830    29.7590    82.1520 HW2           1 RES     
    6204 OW          15.1430    21.1600    96.3250 OW            1 RES     
    6205 HW1         15.5580    22.0690    96.3340 HW1           1 RES     
    6206 HW2         14.1550    21.2450    96.1950 HW2           1 RES     
    6207 OW          19.8990    37.0750    79.1090 OW            1 RES     
    6208 HW1         19.2670    36.3000    79.1160 HW1           1 RES     
    6209 HW2         19.3800    37.9290    79.0820 HW2           1 RES     
    6210 OW          21.9110    40.2540    86.7610 OW            1 RES     
    6211 HW1         22.5840    40.9260    87.0660 HW1           1 RES     
    6212 HW2         22.3190    39.6680    86.0610 HW2           1 RES     
    6213 OW          28.9480     7.6520    88.5340 OW            1 RES     
    6214 HW1         28.2900     6.9510    88.8040 HW1           1 RES     
    6215 HW2         28.9540     7.7390    87.5380 HW2           1 RES     
    6216 OW          34.5480    15.1460    94.7490 OW            1 RES     
    6217 HW1         34.0460    16.0100    94.7380 HW1           1 RES     
    6218 HW2         35.5310    15.3300    94.7550 HW2           1 RES     
    6219 OW          14.7140    32.3270    97.0760 OW            1 RES     
    6220 HW1         13.9550    31.8290    97.4960 HW1           1 RES     
    6221 HW2         15.5370    31.7590    97.0970 HW2           1 RES     
    6222 OW          38.5120     6.1230    85.5290 OW            1 RES     
    6223 HW1         39.3630     5.6240    85.6900 HW1           1 RES     
    6224 HW2         37.7940     5.4810    85.2610 HW2           1 RES     
    6225 OW           3.0210    24.9220    98.6980 OW            1 RES     
    6226 HW1          2.6780    24.0130    98.9310 HW1           1 RES     
    6227 HW2          2.8080    25.5590    99.4400 HW2           1 RES     
    6228 OW          36.7860    32.9130    91.6380 OW            1 RES     
    6229 HW1         36.3580    33.7220    91.2360 HW1           1 RES     
    6230 HW2         37.7720    32.9390    91.4710 HW2           1 RES     
    6231 OW          17.7860    37.8130    81.0050 OW            1 RES     
    6232 HW1         18.7050    38.1710    81.1630 HW1           1 RES     
    6233 HW2         17.8450    36.8630    80.6970 HW2           1 RES     
    6234 OW          15.1900    38.4520    95.5640 OW            1 RES     
    6235 HW1         15.3970    38.5420    94.5900 HW1           1 RES     
    6236 HW2         14.2250    38.6590    95.7210 HW2           1 RES     
    6237 OW          19.1650    30.5130    88.8400 OW            1 RES     
    6238 HW1         19.5500    31.1640    88.1870 HW1           1 RES     
    6239 HW2         18.1700    30.4860    88.7370 HW2           1 RES     
    6240 OW          14.9280    36.0280    80.5980 OW            1 RES     
    6241 HW1         15.8400    35.8980    80.2110 HW1           1 RES     
    6242 HW2         14.3450    36.4920    79.9310 HW2           1 RES     
    6243 OW          27.7700    30.8670    81.3660 OW            1 RES     
    6244 HW1         27.4260    31.7540    81.0580 HW1           1 RES     
    6245 HW2         27.9330    30.2780    80.5740 HW2           1 RES     
    6246 OW           6.3750    12.4630    94.7360 OW            1 RES     
    6247 HW1          5.5060    12.9540    94.6820 HW1           1 RES     
    6248 HW2          6.2210    11.4900    94.5650 HW2           1 RES     
    6249 OW          24.4000    22.2320    93.6080 OW            1 RES     
    6250 HW1         24.7980    21.8660    92.7670 HW1           1 RES     
    6251 HW2         24.1580    21.4780    94.2180 HW2           1 RES     
    6252 OW          18.2540    31.7670    86.1570 OW            1 RES     
    6253 HW1         17.7060    31.7460    86.9930 HW1           1 RES     
    6254 HW2         18.8310    30.9510    86.1160 HW2           1 RES     
    6255 OW          27.0590    30.6720    99.8020 OW            1 RES     
    6256 HW1         26.1930    30.2490    99.5380 HW1           1 RES     
    6257 HW2         27.5860    30.0320   100.3630 HW2           1 RES     
    6258 OW          21.9100    20.9600    96.0630 OW            1 RES     
    6259 HW1         21.5190    21.8490    96.2990 HW1           1 RES     
    6260 HW2         21.5580    20.6670    95.1740 HW2           1 RES     
    6261 OW          18.8940     3.2780    95.7420 OW            1 RES     
    6262 HW1         18.2020     2.5830    95.9360 HW1           1 RES     
    6263 HW2         19.3410     3.0700    94.8720 HW2           1 RES     
    6264 OW           9.7020    39.2660    96.9720 OW            1 RES     
    6265 HW1          9.0410    40.0070    97.0850 HW1           1 RES     
    6266 HW2         10.1320    39.3350    96.0720 HW2           1 RES     
    6267 OW           7.0950     5.0800    95.6610 OW            1 RES     
    6268 HW1          7.3920     4.1260    95.6720 HW1           1 RES     
    6269 HW2          6.0950     5.1180    95.6540 HW2           1 RES     
    6270 OW           8.5280     5.3410    86.0250 OW            1 RES     
    6271 HW1          7.8740     6.0350    85.7270 HW1           1 RES     
    6272 HW2          9.4590     5.6830    85.8980 HW2           1 RES     
    6273 OW           5.1270    19.2400    87.5580 OW            1 RES     
    6274 HW1          4.1870    19.1030    87.2480 HW1           1 RES     
    6275 HW2          5.3100    18.6450    88.3420 HW2           1 RES     
    6276 OW           3.2000    37.2050    86.6480 OW            1 RES     
    6277 HW1          2.5000    36.4920    86.6740 HW1           1 RES     
    6278 HW2          2.8750    38.0110    87.1430 HW2           1 RES     
    6279 OW          13.7840    28.9170    92.0400 OW            1 RES     
    6280 HW1         13.8460    27.9770    91.7060 HW1           1 RES     
    6281 HW2         14.7030    29.2650    92.2270 HW2           1 RES     
    6282 OW          36.9820    18.7550    89.1250 OW            1 RES     
    6283 HW1         36.5380    18.1840    89.8150 HW1           1 RES     
    6284 HW2         37.7410    19.2540    89.5440 HW2           1 RES     
    6285 OW          36.8680    29.9230    86.3470 OW            1 RES     
    6286 HW1         36.7600    30.0120    87.3360 HW1           1 RES     
    6287 HW2         37.1420    28.9870    86.1240 HW2           1 RES     
    6288 OW          31.6140     5.3300    96.4850 OW            1 RES     
    6289 HW1         32.4510     4.8720    96.1880 HW1           1 RES     
    6290 HW2         30.8220     4.7700    96.2380 HW2           1 RES     
    6291 OW          13.0050    20.9370    93.5080 OW            1 RES     
    6292 HW1         13.6440    21.4660    94.0670 HW1           1 RES     
    6293 HW2         13.3330    19.9960    93.4270 HW2           1 RES     
    6294 OW          40.9270    11.1330    97.9990 OW            1 RES     
    6295 HW1         40.4890    10.3040    98.3440 HW1           1 RES     
    6296 HW2         40.9000    11.8430    98.7030 HW2           1 RES     
    6297 OW          37.5650    19.7000    99.9920 OW            1 RES     
    6298 HW1         38.4870    19.8050   100.3630 HW1           1 RES     
    6299 HW2         36.9960    20.4670   100.2880 HW2           1 RES     
    6300 OW           3.2120    27.1830    91.1800 OW            1 RES     
    6301 HW1          2.5000    27.8440    90.9470 HW1           1 RES     
    6302 HW2          4.0830    27.6590    91.3020 HW2           1 RES     
    6303 OW          24.2470    13.8120    99.8190 OW            1 RES     
    6304 HW1         23.5290    13.1960    99.4970 HW1           1 RES     
    6305 HW2         25.0180    13.2760   100.1640 HW2           1 RES     
    6306 OW          10.9870    33.4320    97.5690 OW            1 RES     
    6307 HW1         11.9330    33.6890    97.7650 HW1           1 RES     
    6308 HW2         10.4040    34.2440    97.6180 HW2           1 RES     
    6309 OW          26.5420    25.3690    92.8690 OW            1 RES     
    6310 HW1         27.2990    24.9560    92.3630 HW1           1 RES     
    6311 HW2         26.6430    25.1670    93.8430 HW2           1 RES     
    6312 OW          11.8520    28.3320    87.0210 OW            1 RES     
    6313 HW1         12.1910    27.4470    86.7040 HW1           1 RES     
    6314 HW2         12.5160    29.0450    86.7960 HW2           1 RES     
    6315 OW          17.0590    33.8010    99.8070 OW            1 RES     
    6316 HW1         17.9760    34.1320    99.5870 HW1           1 RES     
    6317 HW2         17.1270    32.9270   100.2880 HW2           1 RES     
    6318 OW           4.7510    31.6840    91.0610 OW            1 RES     
    6319 HW1          4.6120    31.4210    90.1080 HW1           1 RES     
    6320 HW2          4.6000    32.6680    91.1610 HW2           1 RES     
    6321 OW          32.3190    39.9310    79.8830 OW            1 RES     
    6322 HW1         33.2290    40.2720    79.6500 HW1           1 RES     
    6323 HW2         31.8960    39.5260    79.0710 HW2           1 RES     
    6324 OW          29.1210    12.0730    97.6980 OW            1 RES     
    6325 HW1         30.0610    11.9140    97.3990 HW1           1 RES     
    6326 HW2         29.0360    13.0050    98.0520 HW2           1 RES     
    6327 OW          40.4220    25.2440    97.2990 OW            1 RES     
    6328 HW1         40.7700    24.3200    97.1420 HW1           1 RES     
    6329 HW2         40.4750    25.7700    96.4500 HW2           1 RES     
    6330 OW          13.9650    14.3810    97.8110 OW            1 RES     
    6331 HW1         13.0180    14.6480    97.9860 HW1           1 RES     
    6332 HW2         13.9870    13.4490    97.4480 HW2           1 RES     
    6333 OW           5.5900    36.5370    98.9490 OW            1 RES     
    6334 HW1          6.2090    35.9920    98.3850 HW1           1 RES     
    6335 HW2          5.8940    36.5080    99.9020 HW2           1 RES     
    6336 OW          19.5820     5.2720    79.4170 OW            1 RES     
    6337 HW1         19.3230     4.6320    78.6950 HW1           1 RES     
    6338 HW2         19.3670     4.8740    80.3090 HW2           1 RES     
    6339 OW          33.5950    26.2430    88.8420 OW            1 RES     
    6340 HW1         33.0780    26.8410    88.2300 HW1           1 RES     
    6341 HW2         33.7630    26.7150    89.7080 HW2           1 RES     
    6342 OW          28.0380    40.3660    87.1830 OW            1 RES     
    6343 HW1         28.3290    40.8930    87.9800 HW1           1 RES     
    6344 HW2         27.3670    39.6790    87.4630 HW2           1 RES     
    6345 OW          33.6550    27.2080    97.2190 OW            1 RES     
    6346 HW1         34.0920    26.3110    97.2870 HW1           1 RES     
    6347 HW2         34.3560    27.9210    97.2080 HW2           1 RES     
    6348 OW           4.2640    23.0290    96.9200 OW            1 RES     
    6349 HW1          3.9730    22.6130    96.0580 HW1           1 RES     
    6350 HW2          3.7910    22.5850    97.6810 HW2           1 RES     
    6351 OW           5.6100    32.9720    95.0940 OW            1 RES     
    6352 HW1          5.9000    33.0090    96.0490 HW1           1 RES     
    6353 HW2          4.7920    33.5330    94.9710 HW2           1 RES     
    6354 OW          24.1330    13.2530    94.5440 OW            1 RES     
    6355 HW1         25.0320    13.3730    94.9630 HW1           1 RES     
    6356 HW2         23.9700    12.2810    94.3750 HW2           1 RES     
    6357 OW          23.5130    40.2330    84.2460 OW            1 RES     
    6358 HW1         23.2000    40.9260    83.5980 HW1           1 RES     
    6359 HW2         23.9230    39.4690    83.7470 HW2           1 RES     
    6360 OW          36.5190     7.8880    92.0120 OW            1 RES     
    6361 HW1         35.7450     8.5210    92.0330 HW1           1 RES     
    6362 HW2         37.3740     8.4050    92.0680 HW2           1 RES     
    6363 OW          20.8460    30.3720    94.0200 OW            1 RES     
    6364 HW1         21.4540    29.5850    93.9190 HW1           1 RES     
    6365 HW2         21.2840    31.0610    94.5980 HW2           1 RES     
    6366 OW          26.1550    18.3030    85.3850 OW            1 RES     
    6367 HW1         25.6080    18.8240    84.7310 HW1           1 RES     
    6368 HW2         26.3320    17.3890    85.0190 HW2           1 RES     
    6369 OW           6.1460    13.9760    98.3200 OW            1 RES     
    6370 HW1          6.4710    13.7200    99.2300 HW1           1 RES     
    6371 HW2          5.1550    14.1060    98.3440 HW2           1 RES     
    6372 OW          20.5540    17.4400    91.3620 OW            1 RES     
    6373 HW1         21.0040    16.5500    91.2880 HW1           1 RES     
    6374 HW2         19.9650    17.4500    92.1700 HW2           1 RES     
    6375 OW          17.3030    16.2490    90.5280 OW            1 RES     
    6376 HW1         16.6850    15.4650    90.4850 HW1           1 RES     
    6377 HW2         18.1820    16.0040    90.1180 HW2           1 RES     
    6378 OW          25.7060     2.9690    85.4700 OW            1 RES     
    6379 HW1         25.5340     3.5430    84.6710 HW1           1 RES     
    6380 HW2         26.5850     2.5030    85.3640 HW2           1 RES     
    6381 OW          12.2870    30.2450    93.0240 OW            1 RES     
    6382 HW1         12.2530    31.2290    92.8530 HW1           1 RES     
    6383 HW2         12.9600    30.0530    93.7390 HW2           1 RES     
    6384 OW          33.4160    23.2990    84.5970 OW            1 RES     
    6385 HW1         33.2750    23.3590    83.6090 HW1           1 RES     
    6386 HW2         32.5420    23.1150    85.0480 HW2           1 RES     
    6387 OW          20.8380     2.7000    96.8450 OW            1 RES     
    6388 HW1         21.1850     2.5010    95.9290 HW1           1 RES     
    6389 HW2         21.5480     2.5000    97.5210 HW2           1 RES     
    6390 OW          33.4270    33.1750    82.0750 OW            1 RES     
    6391 HW1         33.6730    32.2530    82.3700 HW1           1 RES     
    6392 HW2         34.2560    33.7280    81.9810 HW2           1 RES     
    6393 OW          28.3600    34.0990    91.9580 OW            1 RES     
    6394 HW1         27.6810    34.8290    92.0290 HW1           1 RES     
    6395 HW2         27.8960    33.2200    91.8470 HW2           1 RES     
    6396 OW          29.4990    11.4180    82.1510 OW            1 RES     
    6397 HW1         28.5620    11.6920    82.3640 HW1           1 RES     
    6398 HW2         30.0990    11.6570    82.9160 HW2           1 RES     
    6399 OW          28.2240     5.0310    97.3180 OW            1 RES     
    6400 HW1         28.8090     5.5360    96.6850 HW1           1 RES     
    6401 HW2         27.6550     4.3870    96.8050 HW2           1 RES     
    6402 OW          17.3560     9.4760   100.1680 OW            1 RES     
    6403 HW1         17.2970    10.4500    99.9530 HW1           1 RES     
    6404 HW2         18.3070     9.2350   100.3640 HW2           1 RES     
    6405 OW          13.3770    28.4200    80.1930 OW            1 RES     
    6406 HW1         12.6190    28.3540    80.8410 HW1           1 RES     
    6407 HW2         14.2040    28.0400    80.6070 HW2           1 RES     
    6408 OW           4.9780    31.3500    82.4820 OW            1 RES     
    6409 HW1          5.8660    30.9650    82.2310 HW1           1 RES     
    6410 HW2          4.8740    32.2520    82.0630 HW2           1 RES     
    6411 OW          37.2840    12.6560    89.8000 OW            1 RES     
    6412 HW1         36.5740    11.9540    89.8360 HW1           1 RES     
    6413 HW2         36.8600    13.5550    89.6870 HW2           1 RES     
    6414 OW          31.5040     5.3390    91.9990 OW            1 RES     
    6415 HW1         31.7360     6.3060    92.0970 HW1           1 RES     
    6416 HW2         32.3380     4.7890    92.0510 HW2           1 RES     
    6417 OW          40.4150    25.8730    89.3910 OW            1 RES     
    6418 HW1         40.7150    26.0180    88.4490 HW1           1 RES     
    6419 HW2         40.3480    26.7540    89.8600 HW2           1 RES     
    6420 OW           2.5020    11.3060    87.6540 OW            1 RES     
    6421 HW1          3.2610    11.1120    88.2740 HW1           1 RES     
    6422 HW2          2.6420    10.8170    86.7920 HW2           1 RES     
    6423 OW          34.8420    10.1250    85.5280 OW            1 RES     
    6424 HW1         35.8300    10.1650    85.3790 HW1           1 RES     
    6425 HW2         34.6300    10.4430    86.4520 HW2           1 RES     
    6426 OW          10.6210    19.8890    92.6920 OW            1 RES     
    6427 HW1         11.2900    19.1990    92.9670 HW1           1 RES     
    6428 HW2          9.7090    19.6070    92.9920 HW2           1 RES     
    6429 OW           6.9960     5.4040   100.3640 OW            1 RES     
    6430 HW1          6.8170     4.4220   100.3140 HW1           1 RES     
    6431 HW2          7.9730     5.5720   100.2350 HW2           1 RES     
    6432 OW          34.0840    19.4240    88.2070 OW            1 RES     
    6433 HW1         34.7710    18.9230    88.7320 HW1           1 RES     
    6434 HW2         34.5050    20.2300    87.7900 HW2           1 RES     
    6435 OW          24.6980    38.8240    85.7020 OW            1 RES     
    6436 HW1         25.2120    38.8370    86.5590 HW1           1 RES     
    6437 HW2         24.0400    38.0710    85.7180 HW2           1 RES     
    6438 OW          25.4450    17.7670   100.1210 OW            1 RES     
    6439 HW1         25.3740    16.8010   100.3660 HW1           1 RES     
    6440 HW2         24.5720    18.2220   100.3010 HW2           1 RES     
    6441 OW          17.0020    33.8590    86.5990 OW            1 RES     
    6442 HW1         16.0430    33.7700    86.8670 HW1           1 RES     
    6443 HW2         17.3830    34.6960    86.9930 HW2           1 RES     
    6444 OW          38.6750    15.1010    88.7660 OW            1 RES     
    6445 HW1         37.9770    15.4280    89.4020 HW1           1 RES     
    6446 HW2         38.8430    14.1280    88.9260 HW2           1 RES     
    6447 OW          26.1260    28.5210    96.5200 OW            1 RES     
    6448 HW1         25.3130    27.9620    96.6800 HW1           1 RES     
    6449 HW2         25.8660    29.4860    96.4810 HW2           1 RES     
    6450 OW          29.9630     7.4860    97.8610 OW            1 RES     
    6451 HW1         29.5960     6.7090    98.3720 HW1           1 RES     
    6452 HW2         30.7290     7.1820    97.2950 HW2           1 RES     
    6453 OW          40.9250    22.3740    94.8550 OW            1 RES     
    6454 HW1         40.4360    22.7420    95.6450 HW1           1 RES     
    6455 HW2         40.6780    21.4130    94.7290 HW2           1 RES     
    6456 OW          28.9110     3.8030    90.6040 OW            1 RES     
    6457 HW1         28.1260     4.0730    91.1610 HW1           1 RES     
    6458 HW2         28.7470     2.8960    90.2140 HW2           1 RES     
    6459 OW          23.3060     3.8260    94.6030 OW            1 RES     
    6460 HW1         22.7160     3.0360    94.4420 HW1           1 RES     
    6461 HW2         24.1020     3.5440    95.1390 HW2           1 RES     
    6462 OW          38.0960    17.8440    81.2080 OW            1 RES     
    6463 HW1         38.9920    17.4030    81.2550 HW1           1 RES     
    6464 HW2         38.2150    18.8290    81.0790 HW2           1 RES     
    6465 OW          32.4410     7.5730    87.8470 OW            1 RES     
    6466 HW1         31.8960     8.0950    87.1920 HW1           1 RES     
    6467 HW2         32.9310     8.2020    88.4510 HW2           1 RES     
    6468 OW          27.8830    34.2610    97.2180 OW            1 RES     
    6469 HW1         27.2800    33.6480    96.7080 HW1           1 RES     
    6470 HW2         27.4180    34.5730    98.0470 HW2           1 RES     
    6471 OW          31.0030    15.9310    83.3680 OW            1 RES     
    6472 HW1         31.1860    15.2630    84.0890 HW1           1 RES     
    6473 HW2         30.0520    16.2350    83.4280 HW2           1 RES     
    6474 OW          38.5560    12.7030    82.0380 OW            1 RES     
    6475 HW1         38.5360    13.2430    82.8790 HW1           1 RES     
    6476 HW2         39.1870    13.1240    81.3860 HW2           1 RES     
    6477 OW          14.7320     4.3620    97.7130 OW            1 RES     
    6478 HW1         14.0740     4.2160    96.9750 HW1           1 RES     
    6479 HW2         14.3890     3.9430    98.5540 HW2           1 RES     
    6480 OW          40.9270     8.5110    80.3510 OW            1 RES     
    6481 HW1         40.4560     7.6690    80.0920 HW1           1 RES     
    6482 HW2         40.5340     9.2820    79.8500 HW2           1 RES     
    6483 OW          39.5360    28.1950    93.9370 OW            1 RES     
    6484 HW1         40.3430    28.1060    94.5200 HW1           1 RES     
    6485 HW2         38.9030    28.8550    94.3410 HW2           1 RES     
    6486 OW          17.8020    12.2620    97.7150 OW            1 RES     
    6487 HW1         17.5170    12.2250    98.6720 HW1           1 RES     
    6488 HW2         18.0260    13.2060    97.4700 HW2           1 RES     
    6489 OW          32.4410    17.0960    89.0930 OW            1 RES     
    6490 HW1         32.5470    16.9510    88.1100 HW1           1 RES     
    6491 HW2         31.9640    16.3150    89.4960 HW2           1 RES     
    6492 OW          20.7050    19.0240    83.3020 OW            1 RES     
    6493 HW1         20.7940    18.4390    82.4970 HW1           1 RES     
    6494 HW2         20.5880    18.4550    84.1170 HW2           1 RES     
    6495 OW          28.4030    34.1420    82.2670 OW            1 RES     
    6496 HW1         29.0810    33.4080    82.2770 HW1           1 RES     
    6497 HW2         27.4850    33.7490    82.2020 HW2           1 RES     
    6498 OW          19.4700     9.6890    86.1680 OW            1 RES     
    6499 HW1         20.0850     8.9710    86.4930 HW1           1 RES     
    6500 HW2         19.2490     9.5280    85.2060 HW2           1 RES     
    6501 OW           3.3070    35.7470    90.6030 OW            1 RES     
    6502 HW1          3.5690    35.7060    89.6390 HW1           1 RES     
    6503 HW2          3.9920    36.2670    91.1130 HW2           1 RES     
    6504 OW          29.2320    38.8910    89.8000 OW            1 RES     
    6505 HW1         29.5430    39.3470    88.9670 HW1           1 RES     
    6506 HW2         28.3860    39.3180    90.1190 HW2           1 RES     
    6507 OW           3.5260    16.1040    94.1230 OW            1 RES     
    6508 HW1          4.3930    15.7190    94.4390 HW1           1 RES     
    6509 HW2          3.4610    16.0090    93.1290 HW2           1 RES     
    6510 OW          20.3650    15.0060    89.2450 OW            1 RES     
    6511 HW1         20.1020    14.8650    90.1990 HW1           1 RES     
    6512 HW2         20.9010    14.2230    88.9280 HW2           1 RES     
    6513 OW          34.9260     8.1890    87.5090 OW            1 RES     
    6514 HW1         35.6910     8.4250    86.9100 HW1           1 RES     
    6515 HW2         34.5370     7.3130    87.2250 HW2           1 RES     
    6516 OW          13.0560    22.9240    85.8390 OW            1 RES     
    6517 HW1         12.3750    23.2700    85.1940 HW1           1 RES     
    6518 HW2         12.7310    23.0640    86.7750 HW2           1 RES     
    6519 OW          29.9640    25.5740    90.9970 OW            1 RES     
    6520 HW1         30.7980    25.5390    91.5460 HW1           1 RES     
    6521 HW2         29.4870    24.6970    91.0580 HW2           1 RES     
    6522 OW          26.5710    15.0400    99.8140 OW            1 RES     
    6523 HW1         26.9730    14.3080   100.3640 HW1           1 RES     
    6524 HW2         26.9790    15.0350    98.9010 HW2           1 RES     
    6525 OW          21.5710    39.0470    83.1420 OW            1 RES     
    6526 HW1         21.4020    39.9610    82.7750 HW1           1 RES     
    6527 HW2         20.8720    38.4170    82.8030 HW2           1 RES     
    6528 OW           5.1710    40.4640    88.3810 OW            1 RES     
    6529 HW1          4.5010    40.6420    89.1000 HW1           1 RES     
    6530 HW2          5.2620    39.4770    88.2450 HW2           1 RES     
    6531 OW           9.6310    28.7980    94.1900 OW            1 RES     
    6532 HW1          9.6420    28.8420    93.1920 HW1           1 RES     
    6533 HW2          9.0880    28.0110    94.4840 HW2           1 RES     
    6534 OW          13.5080    11.1040    80.5600 OW            1 RES     
    6535 HW1         14.2530    11.3870    79.9570 HW1           1 RES     
    6536 HW2         12.9900    11.9090    80.8520 HW2           1 RES     
    6537 OW          35.3030     4.0790    84.1200 OW            1 RES     
    6538 HW1         34.7780     3.8610    83.2970 HW1           1 RES     
    6539 HW2         36.2630     4.2180    83.8760 HW2           1 RES     
    6540 OW          33.6410    12.6440    94.2100 OW            1 RES     
    6541 HW1         33.1830    12.1470    93.4740 HW1           1 RES     
    6542 HW2         34.4810    13.0590    93.8600 HW2           1 RES     
    6543 OW          38.7570    35.4910    86.1770 OW            1 RES     
    6544 HW1         39.1050    34.5740    85.9880 HW1           1 RES     
    6545 HW2         38.1300    35.4570    86.9550 HW2           1 RES     
    6546 OW          20.8750    30.7740    82.9140 OW            1 RES     
    6547 HW1         20.4840    29.8960    82.6410 HW1           1 RES     
    6548 HW2         21.8420    30.6540    83.1390 HW2           1 RES     
    6549 OW           9.5280    35.7730    92.4000 OW            1 RES     
    6550 HW1          9.1410    34.9610    92.8360 HW1           1 RES     
    6551 HW2          9.6080    36.5080    93.0740 HW2           1 RES     
    6552 OW          35.2460    17.7270    86.1440 OW            1 RES     
    6553 HW1         35.9750    17.6040    85.4710 HW1           1 RES     
    6554 HW2         35.4010    18.5740    86.6530 HW2           1 RES     
    6555 OW           7.6480    32.9110    82.8090 OW            1 RES     
    6556 HW1          6.6830    33.1120    82.9770 HW1           1 RES     
    6557 HW2          8.1140    33.7430    82.5080 HW2           1 RES     
    6558 OW          40.8450    19.1220    81.1070 OW            1 RES     
    6559 HW1         40.1840    19.7050    80.6370 HW1           1 RES     
    6560 HW2         40.9270    18.2510    80.6220 HW2           1 RES     
    6561 OW          26.9520    36.7550    85.6870 OW            1 RES     
    6562 HW1         26.9610    35.7550    85.6960 HW1           1 RES     
    6563 HW2         26.0240    37.0790    85.5070 HW2           1 RES     
    6564 OW          17.7450    23.9530    97.0720 OW            1 RES     
    6565 HW1         18.5580    24.4850    97.3060 HW1           1 RES     
    6566 HW2         16.9970    24.1970    97.6890 HW2           1 RES     
    6567 OW          31.8300    34.9650    83.6800 OW            1 RES     
    6568 HW1         31.2910    34.2140    84.0610 HW1           1 RES     
    6569 HW2         32.7760    34.6670    83.5560 HW2           1 RES     
    6570 OW           7.1100    16.7590    95.3030 OW            1 RES     
    6571 HW1          7.5320    16.0680    95.8890 HW1           1 RES     
    6572 HW2          7.0970    16.4320    94.3580 HW2           1 RES     
    6573 OW          32.3780    33.8120    91.8190 OW            1 RES     
    6574 HW1         33.2420    34.0550    91.3790 HW1           1 RES     
    6575 HW2         32.2530    32.8210    91.7860 HW2           1 RES     
    6576 OW          33.2440    33.6330    87.3570 OW            1 RES     
    6577 HW1         32.2930    33.8480    87.5750 HW1           1 RES     
    6578 HW2         33.6560    34.4000    86.8650 HW2           1 RES     
    6579 OW          40.9200    29.6360    92.7970 OW            1 RES     
    6580 HW1         40.2230    29.3020    92.1640 HW1           1 RES     
    6581 HW2         40.4840    30.1540    93.5320 HW2           1 RES     
    6582 OW          31.0430     2.9620    90.3830 OW            1 RES     
    6583 HW1         31.8850     3.3500    90.0110 HW1           1 RES     
    6584 HW2         30.9200     3.2720    91.3260 HW2           1 RES     
    6585 OW          33.7690    30.0180    83.7070 OW            1 RES     
    6586 HW1         34.3850    29.5090    84.3060 HW1           1 RES     
    6587 HW2         33.2000    30.6310    84.2560 HW2           1 RES     
    6588 OW          29.3310    13.0750    92.1150 OW            1 RES     
    6589 HW1         30.2370    12.6680    92.2230 HW1           1 RES     
    6590 HW2         29.4110    14.0720    92.0980 HW2           1 RES     
    6591 OW          16.1050     8.9780    90.6580 OW            1 RES     
    6592 HW1         16.5260     9.7970    90.2690 HW1           1 RES     
    6593 HW2         16.8190     8.3280    90.9200 HW2           1 RES     
    6594 OW          36.4450    24.9360    83.6590 OW            1 RES     
    6595 HW1         36.2810    24.1120    83.1170 HW1           1 RES     
    6596 HW2         35.5730    25.2900    83.9990 HW2           1 RES     
    6597 OW           3.4360    27.6640    98.8740 OW            1 RES     
    6598 HW1          2.5010    27.7260    99.2220 HW1           1 RES     
    6599 HW2          3.4300    27.2270    97.9750 HW2           1 RES     
    6600 OW           7.1280    23.1260    90.1560 OW            1 RES     
    6601 HW1          7.0290    22.6330    89.2920 HW1           1 RES     
    6602 HW2          7.1960    22.4700    90.9080 HW2           1 RES     
    6603 OW           5.5100     8.3230    92.5040 OW            1 RES     
    6604 HW1          6.4070     8.6050    92.8420 HW1           1 RES     
    6605 HW2          5.6070     7.4970    91.9490 HW2           1 RES     
    6606 OW          31.8360     9.8820    94.1930 OW            1 RES     
    6607 HW1         31.5550    10.6790    93.6600 HW1           1 RES     
    6608 HW2         32.7490     9.5930    93.9070 HW2           1 RES     
    6609 OW          40.2640    19.6030    86.0920 OW            1 RES     
    6610 HW1         40.6490    18.8100    86.5630 HW1           1 RES     
    6611 HW2         40.9270    19.9510    85.4280 HW2           1 RES     
    6612 OW          26.8260    20.0810   100.3640 OW            1 RES     
    6613 HW1         25.9510    19.8980    99.9170 HW1           1 RES     
    6614 HW2         27.1810    20.9640   100.0550 HW2           1 RES     
    6615 OW          34.8150    16.0340    83.8860 OW            1 RES     
    6616 HW1         34.2520    16.2640    84.6790 HW1           1 RES     
    6617 HW2         35.2480    16.8630    83.5310 HW2           1 RES     
    6618 OW          10.6370    24.6610    82.8790 OW            1 RES     
    6619 HW1         10.3580    23.7040    82.8200 HW1           1 RES     
    6620 HW2          9.8270    25.2480    82.8550 HW2           1 RES     
    6621 OW          10.7390    21.8690    94.7990 OW            1 RES     
    6622 HW1         10.2720    21.0100    94.5900 HW1           1 RES     
    6623 HW2         10.1240    22.6360    94.6150 HW2           1 RES     
    6624 OW          27.9120    36.5140    81.3740 OW            1 RES     
    6625 HW1         27.0420    36.1820    81.0100 HW1           1 RES     
    6626 HW2         28.6670    36.0680    80.8920 HW2           1 RES     
    6627 OW          39.4430    35.5620    83.4680 OW            1 RES     
    6628 HW1         40.2720    35.9150    83.9010 HW1           1 RES     
    6629 HW2         38.7430    36.2750    83.4560 HW2           1 RES     
    6630 OW          15.2090    30.1180    94.2320 OW            1 RES     
    6631 HW1         16.1370    30.2240    93.8760 HW1           1 RES     
    6632 HW2         14.8240    31.0190    94.4340 HW2           1 RES     
    6633 OW          37.2860    12.0780    93.7010 OW            1 RES     
    6634 HW1         38.0060    12.7210    93.9600 HW1           1 RES     
    6635 HW2         36.5600    12.5660    93.2170 HW2           1 RES     
    6636 OW          12.9540    34.5610    80.4940 OW            1 RES     
    6637 HW1         12.0820    34.9760    80.7530 HW1           1 RES     
    6638 HW2         12.7910    33.6500    80.1150 HW2           1 RES     
    6639 OW           5.2110    24.7370    98.5840 OW            1 RES     
    6640 HW1          5.0670    24.7650    99.5730 HW1           1 RES     
    6641 HW2          6.1300    24.3920    98.3910 HW2           1 RES     
    6642 OW           9.9620    22.3690    99.0460 OW            1 RES     
    6643 HW1          9.7910    22.2580    98.0680 HW1           1 RES     
    6644 HW2          9.7360    21.5200    99.5230 HW2           1 RES     
    6645 OW          24.9440    32.1000    95.8540 OW            1 RES     
    6646 HW1         25.8880    31.8460    95.6430 HW1           1 RES     
    6647 HW2         24.3410    31.7810    95.1220 HW2           1 RES     
    6648 OW           2.5080    24.2740    88.7360 OW            1 RES     
    6649 HW1          2.5000    23.2780    88.6580 HW1           1 RES     
    6650 HW2          2.7990    24.6750    87.8670 HW2           1 RES     
    6651 OW          37.7380    39.6870    93.2850 OW            1 RES     
    6652 HW1         38.2660    39.0890    92.6840 HW1           1 RES     
    6653 HW2         38.3370    40.3900    93.6680 HW2           1 RES     
    6654 OW          14.1430    33.4370    82.4300 OW            1 RES     
    6655 HW1         14.6370    33.2750    83.2830 HW1           1 RES     
    6656 HW2         13.1590    33.4450    82.6100 HW2           1 RES     
    6657 OW           8.2310    30.6320    95.8770 OW            1 RES     
    6658 HW1          8.0500    29.6760    96.1060 HW1           1 RES     
    6659 HW2          7.3650    31.1190    95.7660 HW2           1 RES     
    6660 OW          27.4250    23.6930    83.4970 OW            1 RES     
    6661 HW1         28.0390    24.4810    83.4520 HW1           1 RES     
    6662 HW2         27.9180    22.8700    83.2150 HW2           1 RES     
    6663 OW           8.7250    31.6550    98.4360 OW            1 RES     
    6664 HW1          9.7030    31.7940    98.2840 HW1           1 RES     
    6665 HW2          8.5190    30.6760    98.4120 HW2           1 RES     
    6666 OW           2.5030    20.3350    96.5810 OW            1 RES     
    6667 HW1          3.2980    20.1120    96.0180 HW1           1 RES     
    6668 HW2          2.5640    19.8480    97.4530 HW2           1 RES     
    6669 OW          39.1810     7.1020    88.5220 OW            1 RES     
    6670 HW1         40.0930     6.8110    88.2330 HW1           1 RES     
    6671 HW2         38.5080     6.8220    87.8360 HW2           1 RES     
    6672 OW           6.7520    26.7580   100.2070 OW            1 RES     
    6673 HW1          7.6550    27.1810   100.1410 HW1           1 RES     
    6674 HW2          6.8550    25.7750   100.3630 HW2           1 RES     
    6675 OW          39.8860    23.4840    87.5950 OW            1 RES     
    6676 HW1         40.8420    23.3440    87.8490 HW1           1 RES     
    6677 HW2         39.8400    23.9710    86.7230 HW2           1 RES     
    6678 OW          15.4670    19.5730    79.3920 OW            1 RES     
    6679 HW1         15.7700    18.9740    80.1320 HW1           1 RES     
    6680 HW2         14.9960    19.0320    78.6950 HW2           1 RES     
    6681 OW          11.3290    21.9300    92.2560 OW            1 RES     
    6682 HW1         11.6640    22.5840    92.9340 HW1           1 RES     
    6683 HW2         10.3640    22.1140    92.0640 HW2           1 RES     
    6684 OW          34.8250    36.7670    82.4860 OW            1 RES     
    6685 HW1         35.8130    36.8040    82.3440 HW1           1 RES     
    6686 HW2         34.5480    35.8220    82.6610 HW2           1 RES     
    6687 OW          20.2120    19.2420    94.1740 OW            1 RES     
    6688 HW1         20.0380    18.2770    94.3660 HW1           1 RES     
    6689 HW2         20.5260    19.3430    93.2300 HW2           1 RES     
    6690 OW           7.9080    20.4090    92.0160 OW            1 RES     
    6691 HW1          7.4410    19.9810    92.7890 HW1           1 RES     
    6692 HW2          8.3580    21.2480    92.3210 HW2           1 RES     
    6693 OW          16.0870    18.7080    89.5490 OW            1 RES     
    6694 HW1         16.1520    18.7780    90.5440 HW1           1 RES     
    6695 HW2         16.4640    17.8310    89.2500 HW2           1 RES     
    6696 OW          21.6460    17.2290    97.4390 OW            1 RES     
    6697 HW1         21.8840    17.8000    96.6540 HW1           1 RES     
    6698 HW2         20.6710    17.0080    97.4070 HW2           1 RES     
    6699 OW          11.6850     2.7290    83.6680 OW            1 RES     
    6700 HW1         11.3360     2.7280    84.6040 HW1           1 RES     
    6701 HW2         12.6590     2.5000    83.6740 HW2           1 RES     
    6702 OW          21.6810    40.5490    99.8780 OW            1 RES     
    6703 HW1         20.8750    40.9270    99.4230 HW1           1 RES     
    6704 HW2         22.5080    40.9190    99.4540 HW2           1 RES     
    6705 OW           9.0270    32.5520    84.4850 OW            1 RES     
    6706 HW1          9.6690    33.0620    83.9130 HW1           1 RES     
    6707 HW2          9.1290    31.5730    84.3090 HW2           1 RES     
    6708 OW          10.1300    17.0980    88.0900 OW            1 RES     
    6709 HW1          9.2860    17.0130    87.5620 HW1           1 RES     
    6710 HW2         10.4570    18.0420    88.0470 HW2           1 RES     
    6711 OW          24.3020    39.7010    99.0780 OW            1 RES     
    6712 HW1         24.6040    40.6130    98.8020 HW1           1 RES     
    6713 HW2         24.9250    39.0150    98.7030 HW2           1 RES     
    6714 OW          14.9500    12.7700    93.2410 OW            1 RES     
    6715 HW1         15.0480    13.6110    93.7710 HW1           1 RES     
    6716 HW2         15.3640    12.8940    92.3390 HW2           1 RES     
    6717 OW          26.7120    25.1150    90.2260 OW            1 RES     
    6718 HW1         27.4640    24.4560    90.2270 HW1           1 RES     
    6719 HW2         26.1380    24.9660    89.4200 HW2           1 RES     
    6720 OW          40.0870    11.6330    90.1280 OW            1 RES     
    6721 HW1         39.2840    11.0390    90.0930 HW1           1 RES     
    6722 HW2         39.7950    12.5850    90.2220 HW2           1 RES     
    6723 OW          18.6350    31.0380    96.9130 OW            1 RES     
    6724 HW1         18.8630    31.5530    97.7390 HW1           1 RES     
    6725 HW2         19.2950    31.2540    96.1930 HW2           1 RES     
    6726 OW          18.7420    30.8560    93.5950 OW            1 RES     
    6727 HW1         18.0800    31.6050    93.5700 HW1           1 RES     
    6728 HW2         18.3260    30.0560    94.0270 HW2           1 RES     
    6729 OW          26.3450     4.0690    81.9570 OW            1 RES     
    6730 HW1         26.1370     3.0920    81.9450 HW1           1 RES     
    6731 HW2         25.5030     4.5920    81.8230 HW2           1 RES     
    6732 OW          10.3860    30.4250    95.4660 OW            1 RES     
    6733 HW1         10.3710    31.0240    96.2660 HW1           1 RES     
    6734 HW2         11.3060    30.0510    95.3460 HW2           1 RES     
    6735 OW          27.2840    28.9030    89.0490 OW            1 RES     
    6736 HW1         27.5690    27.9460    89.0990 HW1           1 RES     
    6737 HW2         26.9090    29.0930    88.1420 HW2           1 RES     
    6738 OW          24.3810    40.1820    91.3010 OW            1 RES     
    6739 HW1         23.8240    40.9250    90.9300 HW1           1 RES     
    6740 HW2         23.9600    39.3040    91.0720 HW2           1 RES     
    6741 OW          39.5300     4.4800    99.9190 OW            1 RES     
    6742 HW1         40.2800     3.9930   100.3640 HW1           1 RES     
    6743 HW2         39.8900     5.0370    99.1710 HW2           1 RES     
    6744 OW           3.4410    22.5660    79.0890 OW            1 RES     
    6745 HW1          3.4820    22.6750    80.0810 HW1           1 RES     
    6746 HW2          2.5020    22.3570    78.8150 HW2           1 RES     
    6747 OW          21.0820    27.4810    79.0590 OW            1 RES     
    6748 HW1         20.1690    27.0850    79.1540 HW1           1 RES     
    6749 HW2         21.0070    28.4090    78.6930 HW2           1 RES     
    6750 OW          23.7050    14.9530    96.6950 OW            1 RES     
    6751 HW1         23.4180    15.9010    96.8220 HW1           1 RES     
    6752 HW2         24.6820    14.9250    96.4820 HW2           1 RES     
    6753 OW          17.9810    29.8480    91.4080 OW            1 RES     
    6754 HW1         18.6750    29.3870    91.9600 HW1           1 RES     
    6755 HW2         17.2990    30.2660    92.0090 HW2           1 RES     
    6756 OW           9.0070     3.6320   100.1660 OW            1 RES     
    6757 HW1          8.5840     2.7480   100.3630 HW1           1 RES     
    6758 HW2          9.9750     3.4980    99.9520 HW2           1 RES     
    6759 OW          34.5170    30.3700    98.2050 OW            1 RES     
    6760 HW1         35.0430    31.1960    98.4060 HW1           1 RES     
    6761 HW2         34.9520    29.5820    98.6410 HW2           1 RES     
    6762 OW          25.6590    29.8720    91.2120 OW            1 RES     
    6763 HW1         24.7760    30.1060    91.6180 HW1           1 RES     
    6764 HW2         26.2240    29.4010    91.8900 HW2           1 RES     
    6765 OW          12.5850     5.9610    84.0130 OW            1 RES     
    6766 HW1         11.7440     5.4710    83.7840 HW1           1 RES     
    6767 HW2         13.2980     5.3030    84.2590 HW2           1 RES     
    6768 OW          37.3130    27.3230    83.7210 OW            1 RES     
    6769 HW1         36.3740    27.3600    84.0620 HW1           1 RES     
    6770 HW2         37.3210    27.5230    82.7410 HW2           1 RES     
    6771 OW          19.1810    12.3920    92.4110 OW            1 RES     
    6772 HW1         19.8470    12.2630    93.1450 HW1           1 RES     
    6773 HW2         18.2940    12.6340    92.8040 HW2           1 RES     
    6774 OW          34.4480    19.2830    92.1710 OW            1 RES     
    6775 HW1         35.1370    19.3900    92.8870 HW1           1 RES     
    6776 HW2         34.7730    18.6270    91.4900 HW2           1 RES     
    6777 OW          20.1660    37.3010    98.2590 OW            1 RES     
    6778 HW1         20.7860    36.5170    98.2350 HW1           1 RES     
    6779 HW2         20.6970    38.1470    98.2210 HW2           1 RES     
    6780 OW          19.7740     6.6110    87.4660 OW            1 RES     
    6781 HW1         19.0440     6.8740    88.0960 HW1           1 RES     
    6782 HW2         19.4070     6.5500    86.5370 HW2           1 RES     
    6783 OW          37.6770    21.7830    93.0080 OW            1 RES     
    6784 HW1         37.8280    20.8100    92.8340 HW1           1 RES     
    6785 HW2         37.1820    22.1870    92.2390 HW2           1 RES     
    6786 OW          17.3450    36.9970    90.1210 OW            1 RES     
    6787 HW1         17.2610    37.0830    89.1280 HW1           1 RES     
    6788 HW2         18.0800    36.3550    90.3400 HW2           1 RES     
    6789 OW          10.8700    19.1160    98.2050 OW            1 RES     
    6790 HW1         11.2130    19.9770    97.8310 HW1           1 RES     
    6791 HW2         11.6400    18.5150    98.4180 HW2           1 RES     
    6792 OW          15.5370    35.8870    91.0290 OW            1 RES     
    6793 HW1         16.0020    36.3930    91.7550 HW1           1 RES     
    6794 HW2         16.1580    35.2000    90.6500 HW2           1 RES     
    6795 OW           7.6810    32.0810    88.2360 OW            1 RES     
    6796 HW1          6.7510    32.4400    88.3060 HW1           1 RES     
    6797 HW2          7.6480    31.1120    87.9900 HW2           1 RES     
    6798 OW          30.5750     6.7220    81.0880 OW            1 RES     
    6799 HW1         30.4070     6.1980    81.9230 HW1           1 RES     
    6800 HW2         29.8580     7.4100    80.9750 HW2           1 RES     
    6801 OW          20.6190    17.1920    79.4180 OW            1 RES     
    6802 HW1         20.4210    17.8500    78.6930 HW1           1 RES     
    6803 HW2         21.3890    17.5190    79.9660 HW2           1 RES     
    6804 OW          14.9550    23.8670    81.4220 OW            1 RES     
    6805 HW1         15.7390    24.0800    82.0050 HW1           1 RES     
    6806 HW2         14.3340    23.2520    81.9090 HW2           1 RES     
    6807 OW          37.3320    23.7850    90.2480 OW            1 RES     
    6808 HW1         36.4550    23.5790    90.6820 HW1           1 RES     
    6809 HW2         37.1980    24.4740    89.5360 HW2           1 RES     
    6810 OW          27.4340    38.6770    81.0100 OW            1 RES     
    6811 HW1         27.5010    38.3100    80.0820 HW1           1 RES     
    6812 HW2         26.6270    38.2970    81.4610 HW2           1 RES     
    6813 OW           7.1660     6.0580    90.7860 OW            1 RES     
    6814 HW1          7.1270     6.9670    90.3730 HW1           1 RES     
    6815 HW2          6.2470     5.6630    90.8110 HW2           1 RES     
    6816 OW           5.3680    21.9140    85.3380 OW            1 RES     
    6817 HW1          5.6920    21.0190    85.6440 HW1           1 RES     
    6818 HW2          5.9370    22.2340    84.5800 HW2           1 RES     
    6819 OW          16.7840    15.3180    92.6780 OW            1 RES     
    6820 HW1         16.9890    14.3740    92.4230 HW1           1 RES     
    6821 HW2         15.7950    15.4290    92.7810 HW2           1 RES     
    6822 OW          12.9100    36.8950    91.3390 OW            1 RES     
    6823 HW1         13.5860    36.8100    90.6070 HW1           1 RES     
    6824 HW2         12.5320    37.8210    91.3380 HW2           1 RES     
    6825 OW           3.3210    23.4820    93.5860 OW            1 RES     
    6826 HW1          2.5000    23.9210    93.9490 HW1           1 RES     
    6827 HW2          3.1320    23.1260    92.6710 HW2           1 RES     
    6828 OW          18.3220    37.2920    93.3390 OW            1 RES     
    6829 HW1         17.9950    37.0370    92.4300 HW1           1 RES     
    6830 HW2         19.2720    36.9990    93.4480 HW2           1 RES     
    6831 OW          36.0050    35.7320    89.5500 OW            1 RES     
    6832 HW1         36.8700    35.2870    89.7770 HW1           1 RES     
    6833 HW2         35.2970    35.4310    90.1890 HW2           1 RES     
    6834 OW          20.9120     6.1930    90.8020 OW            1 RES     
    6835 HW1         21.6810     6.1580    90.1640 HW1           1 RES     
    6836 HW2         20.1840     5.5880    90.4800 HW2           1 RES     
    6837 OW          38.5090    26.5710    87.9560 OW            1 RES     
    6838 HW1         37.9270    27.0120    87.2730 HW1           1 RES     
    6839 HW2         38.6440    25.6110    87.7090 HW2           1 RES     
    6840 OW          17.6630    17.4650    99.4510 OW            1 RES     
    6841 HW1         17.3050    16.7010    98.9160 HW1           1 RES     
    6842 HW2         16.9510    18.1590    99.5630 HW2           1 RES     
    6843 OW          11.9660    35.6330    82.9640 OW            1 RES     
    6844 HW1         12.9530    35.6260    82.8050 HW1           1 RES     
    6845 HW2         11.7110    34.8350    83.5100 HW2           1 RES     
    6846 OW          13.0880    40.9270    95.5780 OW            1 RES     
    6847 HW1         13.5790    40.5470    94.7940 HW1           1 RES     
    6848 HW2         12.6870    40.1830    96.1130 HW2           1 RES     
    6849 OW          29.0970    18.9210    99.9520 OW            1 RES     
    6850 HW1         28.2620    18.4230   100.1840 HW1           1 RES     
    6851 HW2         29.0630    19.8360   100.3560 HW2           1 RES     
    6852 OW          33.8150    11.0150    98.5210 OW            1 RES     
    6853 HW1         34.4830    10.6240    97.8890 HW1           1 RES     
    6854 HW2         32.9490    11.1620    98.0430 HW2           1 RES     
    6855 OW          30.6190    21.4880    83.6720 OW            1 RES     
    6856 HW1         31.2680    22.2260    83.4900 HW1           1 RES     
    6857 HW2         29.7400    21.8770    83.9480 HW2           1 RES     
    6858 OW          39.3410    23.8340    79.7730 OW            1 RES     
    6859 HW1         40.1720    23.5090    79.3230 HW1           1 RES     
    6860 HW2         39.0790    24.7210    79.3910 HW2           1 RES     
    6861 OW          32.0380    22.7850    88.4020 OW            1 RES     
    6862 HW1         31.7430    22.5190    89.3190 HW1           1 RES     
    6863 HW2         31.8910    22.0240    87.7700 HW2           1 RES     
    6864 OW          11.0730    33.7710    86.0290 OW            1 RES     
    6865 HW1         10.0780    33.8200    85.9440 HW1           1 RES     
    6866 HW2         11.4760    34.6420    85.7510 HW2           1 RES     
    6867 OW           3.2110    30.9110    88.4900 OW            1 RES     
    6868 HW1          3.0000    31.5300    87.7340 HW1           1 RES     
    6869 HW2          2.5000    30.2110    88.5570 HW2           1 RES     
    6870 OW          23.1150    39.9530    96.9190 OW            1 RES     
    6871 HW1         23.9240    39.4210    96.6690 HW1           1 RES     
    6872 HW2         23.3040    40.9270    96.7950 HW2           1 RES     
    6873 OW          15.8370    32.9970    95.3020 OW            1 RES     
    6874 HW1         15.5130    33.6330    94.6030 HW1           1 RES     
    6875 HW2         16.5010    32.3670    94.8980 HW2           1 RES     
    6876 OW          25.9150    33.2560    80.5110 OW            1 RES     
    6877 HW1         25.8390    32.6800    79.6980 HW1           1 RES     
    6878 HW2         26.2350    34.1660    80.2460 HW2           1 RES     
    6879 OW          27.9560    12.2970    84.5670 OW            1 RES     
    6880 HW1         28.6590    11.5870    84.5780 HW1           1 RES     
    6881 HW2         28.3910    13.1980    84.5600 HW2           1 RES     
    6882 OW           6.9730    30.2470    93.7820 OW            1 RES     
    6883 HW1          6.4270    31.0840    93.7770 HW1           1 RES     
    6884 HW2          7.9420    30.4800    93.7020 HW2           1 RES     
    6885 OW          30.8180    15.3920    78.8870 OW            1 RES     
    6886 HW1         30.0620    14.7380    78.8870 HW1           1 RES     
    6887 HW2         30.4540    16.3230    78.8580 HW2           1 RES     
    6888 OW          36.5900    37.0920    97.1700 OW            1 RES     
    6889 HW1         36.8980    36.3770    96.5430 HW1           1 RES     
    6890 HW2         35.7070    37.4480    96.8630 HW2           1 RES     
    6891 OW          35.3270    34.7860    98.8340 OW            1 RES     
    6892 HW1         35.9310    34.1410    99.2990 HW1           1 RES     
    6893 HW2         35.8310    35.6230    98.6220 HW2           1 RES     
    6894 OW          12.1280     7.6370    81.6570 OW            1 RES     
    6895 HW1         12.5430     8.3980    82.1540 HW1           1 RES     
    6896 HW2         11.2150     7.9000    81.3460 HW2           1 RES     
    6897 OW          30.7630    14.3100    90.3770 OW            1 RES     
    6898 HW1         31.3310    14.2090    89.5610 HW1           1 RES     
    6899 HW2         30.1270    15.0710    90.2500 HW2           1 RES     
    6900 OW          39.5550    18.3690    98.4370 OW            1 RES     
    6901 HW1         39.8410    18.3670    99.3950 HW1           1 RES     
    6902 HW2         40.1570    18.9680    97.9100 HW2           1 RES     
    6903 OW          16.6460    24.7930    92.4760 OW            1 RES     
    6904 HW1         16.6460    23.8960    92.0350 HW1           1 RES     
    6905 HW2         16.2810    24.7080    93.4040 HW2           1 RES     
    6906 OW          33.2520    20.6100    89.8630 OW            1 RES     
    6907 HW1         33.6490    21.4300    89.4530 HW1           1 RES     
    6908 HW2         32.3710    20.4140    89.4310 HW2           1 RES     
    6909 OW          23.2660    38.3970    87.7510 OW            1 RES     
    6910 HW1         23.5690    38.5240    88.6950 HW1           1 RES     
    6911 HW2         22.2780    38.2420    87.7360 HW2           1 RES     
    6912 OW          35.6680    12.2060    82.0560 OW            1 RES     
    6913 HW1         36.4000    12.7410    82.4750 HW1           1 RES     
    6914 HW2         35.7320    12.2750    81.0600 HW2           1 RES     
    6915 OW          35.4710    26.7500    95.6310 OW            1 RES     
    6916 HW1         35.4100    25.7530    95.6160 HW1           1 RES     
    6917 HW2         36.4320    27.0250    95.6790 HW2           1 RES     
    6918 OW          13.8250     9.8730    89.2750 OW            1 RES     
    6919 HW1         13.3330     9.4220    88.5310 HW1           1 RES     
    6920 HW2         14.7600    10.0740    88.9830 HW2           1 RES     
    6921 OW           4.1030    23.5780    90.1350 OW            1 RES     
    6922 HW1          4.9850    23.3640    89.7170 HW1           1 RES     
    6923 HW2          4.1040    24.5270    90.4490 HW2           1 RES     
    6924 OW          32.0250    38.1210    82.1690 OW            1 RES     
    6925 HW1         31.8550    38.9690    82.6700 HW1           1 RES     
    6926 HW2         33.0100    37.9900    82.0590 HW2           1 RES     
    6927 OW           9.7470    32.6320    90.7880 OW            1 RES     
    6928 HW1          9.8610    31.6960    90.4580 HW1           1 RES     
    6929 HW2          9.0810    33.1090    90.2150 HW2           1 RES     
    6930 OW          13.8250    25.0090    94.8510 OW            1 RES     
    6931 HW1         13.6760    25.5360    95.6870 HW1           1 RES     
    6932 HW2         14.5940    24.3830    94.9830 HW2           1 RES     
    6933 OW          24.6830    11.8100    98.1780 OW            1 RES     
    6934 HW1         24.8780    10.8380    98.0480 HW1           1 RES     
    6935 HW2         25.5420    12.3170    98.2460 HW2           1 RES     
    6936 OW          21.6120    26.7490    91.1480 OW            1 RES     
    6937 HW1         20.6930    26.3570    91.1410 HW1           1 RES     
    6938 HW2         21.5500    27.7470    91.1410 HW2           1 RES     
    6939 OW          27.5170     9.2570    81.0100 OW            1 RES     
    6940 HW1         27.6360     8.4980    80.3700 HW1           1 RES     
    6941 HW2         27.5250    10.1220    80.5070 HW2           1 RES     
    6942 OW          22.7370    33.6710    97.2810 OW            1 RES     
    6943 HW1         22.6600    34.6260    97.5670 HW1           1 RES     
    6944 HW2         23.6110    33.2990    97.5920 HW2           1 RES     
    6945 OW          26.0870    40.4150    81.2050 OW            1 RES     
    6946 HW1         25.7870    40.9270    80.4010 HW1           1 RES     
    6947 HW2         25.3370    40.3580    81.8640 HW2           1 RES     
    6948 OW          28.4390    27.3030    97.6100 OW            1 RES     
    6949 HW1         29.2660    27.5920    97.1300 HW1           1 RES     
    6950 HW2         27.9900    28.1010    98.0120 HW2           1 RES     
    6951 OW          36.1710     9.3490    82.8300 OW            1 RES     
    6952 HW1         36.2580    10.2630    83.2230 HW1           1 RES     
    6953 HW2         35.8030     8.7230    83.5180 HW2           1 RES     
    6954 OW          38.8440    18.3020    84.4710 OW            1 RES     
    6955 HW1         37.8840    18.0360    84.3980 HW1           1 RES     
    6956 HW2         39.2980    17.7330    85.1570 HW2           1 RES     
    6957 OW          22.3490    30.5300    87.4030 OW            1 RES     
    6958 HW1         23.0780    31.0940    87.7890 HW1           1 RES     
    6959 HW2         21.5460    31.0990    87.2240 HW2           1 RES     
    6960 OW          35.5530    31.7130    95.6310 OW            1 RES     
    6961 HW1         36.3630    31.9010    96.1850 HW1           1 RES     
    6962 HW2         34.7840    31.4860    96.2300 HW2           1 RES     
    6963 OW          14.9730    32.0390    92.4900 OW            1 RES     
    6964 HW1         14.2720    31.5020    92.0220 HW1           1 RES     
    6965 HW2         14.6090    32.9430    92.7140 HW2           1 RES     
    6966 OW          32.9870    30.8920   100.3640 OW            1 RES     
    6967 HW1         33.6620    31.5710   100.0770 HW1           1 RES     
    6968 HW2         33.1830    30.0180    99.9190 HW2           1 RES     
    6969 OW          28.0990    17.2170    95.1940 OW            1 RES     
    6970 HW1         28.7940    17.9360    95.1760 HW1           1 RES     
    6971 HW2         28.3530    16.5250    95.8710 HW2           1 RES     
    6972 OW          39.6620    31.8380    91.7040 OW            1 RES     
    6973 HW1         40.5840    31.8120    92.0900 HW1           1 RES     
    6974 HW2         39.0800    31.1820    92.1850 HW2           1 RES     
    6975 OW          12.2020    11.7270    78.7710 OW            1 RES     
    6976 HW1         11.2520    12.0290    78.6960 HW1           1 RES     
    6977 HW2         12.8080    12.5230    78.7470 HW2           1 RES     
    6978 OW          22.6180    18.0950    93.3680 OW            1 RES     
    6979 HW1         22.3420    18.5710    94.2030 HW1           1 RES     
    6980 HW2         21.9380    17.3970    93.1410 HW2           1 RES     
    6981 OW          16.9600    19.2790    87.5780 OW            1 RES     
    6982 HW1         16.1740    18.7440    87.2690 HW1           1 RES     
    6983 HW2         17.7920    18.7310    87.4930 HW2           1 RES     
    6984 OW          15.1660    40.4770    88.7480 OW            1 RES     
    6985 HW1         15.3250    39.4970    88.6360 HW1           1 RES     
    6986 HW2         16.0180    40.9250    89.0200 HW2           1 RES     
    6987 OW          28.8250    40.5020    98.7250 OW            1 RES     
    6988 HW1         29.2430    40.9250    99.5290 HW1           1 RES     
    6989 HW2         27.8350    40.6410    98.7510 HW2           1 RES     
    6990 OW          18.0560    32.1860    81.1930 OW            1 RES     
    6991 HW1         17.4270    32.1550    81.9690 HW1           1 RES     
    6992 HW2         18.5910    31.3410    81.1640 HW2           1 RES     
    6993 OW          11.7840    23.3840    78.6990 OW            1 RES     
    6994 HW1         11.7980    22.3840    78.6950 HW1           1 RES     
    6995 HW2         12.7220    23.7310    78.7040 HW2           1 RES     
    6996 OW          20.0190    13.5260    99.8620 OW            1 RES     
    6997 HW1         20.7460    13.9930   100.3640 HW1           1 RES     
    6998 HW2         19.4170    14.2040    99.4390 HW2           1 RES     
    6999 OW          23.2610     6.8350    92.3460 OW            1 RES     
    7000 HW1         22.3120     6.5450    92.4620 HW1           1 RES     
    7001 HW2         23.3270     7.8240    92.4800 HW2           1 RES     
    7002 OW          16.5570    32.5680    84.0910 OW            1 RES     
    7003 HW1         16.0600    32.6940    84.9480 HW1           1 RES     
    7004 HW2         17.5410    32.6300    84.2630 HW2           1 RES     
    7005 OW          29.8070    21.9120    90.9320 OW            1 RES     
    7006 HW1         30.4090    22.7000    91.0590 HW1           1 RES     
    7007 HW2         28.8630    22.1770    91.1310 HW2           1 RES     
    7008 OW          16.0720    36.4430    95.3870 OW            1 RES     
    7009 HW1         16.2910    35.4770    95.5170 HW1           1 RES     
    7010 HW2         16.8190    36.8920    94.8960 HW2           1 RES     
    7011 OW          38.6020    14.8520    86.5800 OW            1 RES     
    7012 HW1         39.5040    14.4950    86.8200 HW1           1 RES     
    7013 HW2         38.7050    15.7080    86.0730 HW2           1 RES     
    7014 OW          27.0230    13.7440    96.1080 OW            1 RES     
    7015 HW1         27.0790    14.4890    96.7720 HW1           1 RES     
    7016 HW2         27.7930    13.1200    96.2410 HW2           1 RES     
    7017 OW          28.9410    25.7790    93.5750 OW            1 RES     
    7018 HW1         28.9330    26.3710    92.7700 HW1           1 RES     
    7019 HW2         29.6750    25.1050    93.4860 HW2           1 RES     
    7020 OW          29.0260    13.8420    82.4990 OW            1 RES     
    7021 HW1         28.7000    14.7790    82.3800 HW1           1 RES     
    7022 HW2         29.8580    13.8460    83.0550 HW2           1 RES     
    7023 OW          27.7680    21.3760    79.1360 OW            1 RES     
    7024 HW1         28.5730    21.8530    78.7860 HW1           1 RES     
    7025 HW2         27.1350    22.0390    79.5370 HW2           1 RES     
    7026 OW          12.5580    38.3220    97.7040 OW            1 RES     
    7027 HW1         13.3860    38.8810    97.7430 HW1           1 RES     
    7028 HW2         11.7630    38.8890    97.9190 HW2           1 RES     
    7029 OW           6.7420    27.7550    92.6940 OW            1 RES     
    7030 HW1          7.0130    26.7930    92.7020 HW1           1 RES     
    7031 HW2          7.5590    28.3330    92.6990 HW2           1 RES     
    7032 OW          29.0510    12.9500    89.9310 OW            1 RES     
    7033 HW1         28.4590    12.2020    90.2330 HW1           1 RES     
    7034 HW2         28.4890    13.7280    89.6510 HW2           1 RES     
    7035 OW           3.5560    18.4070    82.1170 OW            1 RES     
    7036 HW1          4.0530    17.7070    82.6270 HW1           1 RES     
    7037 HW2          2.8020    17.9830    81.6150 HW2           1 RES     
    7038 OW          15.0650    26.9440    87.3300 OW            1 RES     
    7039 HW1         15.8650    27.5120    87.5180 HW1           1 RES     
    7040 HW2         14.3900    27.4760    86.8190 HW2           1 RES     
    7041 OW          21.1380     7.0590    98.3360 OW            1 RES     
    7042 HW1         22.1350     7.0180    98.3870 HW1           1 RES     
    7043 HW2         20.8610     7.3050    97.4070 HW2           1 RES     
    7044 OW           7.3180    20.5180    89.8990 OW            1 RES     
    7045 HW1          8.1830    20.7680    89.4660 HW1           1 RES     
    7046 HW2          6.5970    20.4770    89.2070 HW2           1 RES     
    7047 OW           5.3430    38.8090    95.9650 OW            1 RES     
    7048 HW1          6.2680    39.1850    95.9290 HW1           1 RES     
    7049 HW2          5.3890    37.8220    96.1210 HW2           1 RES     
    7050 OW          31.8530    31.8890    97.1850 OW            1 RES     
    7051 HW1         31.8050    32.0250    96.1960 HW1           1 RES     
    7052 HW2         30.9270    31.8270    97.5580 HW2           1 RES     
    7053 OW          34.4870    27.4700    82.7220 OW            1 RES     
    7054 HW1         33.7930    27.5240    83.4390 HW1           1 RES     
    7055 HW2         34.7530    28.3940    82.4450 HW2           1 RES     
    7056 OW          37.2090    13.8760    80.7320 OW            1 RES     
    7057 HW1         37.5870    14.3010    79.9100 HW1           1 RES     
    7058 HW2         37.3390    14.4860    81.5140 HW2           1 RES     
    7059 OW          10.6280    15.0810    91.7160 OW            1 RES     
    7060 HW1          9.6770    14.7820    91.6480 HW1           1 RES     
    7061 HW2         11.2320    14.2850    91.6840 HW2           1 RES     
    7062 OW          23.6030    21.1310    99.4660 OW            1 RES     
    7063 HW1         23.5790    21.1320    98.4670 HW1           1 RES     
    7064 HW2         23.7450    20.1970    99.7960 HW2           1 RES     
    7065 OW          21.4100    22.7050    93.1430 OW            1 RES     
    7066 HW1         22.2240    22.1430    93.2890 HW1           1 RES     
    7067 HW2         21.6760    23.6670    93.0740 HW2           1 RES     
    7068 OW          19.9600     7.5060    84.6070 OW            1 RES     
    7069 HW1         20.6600     8.1290    84.2590 HW1           1 RES     
    7070 HW2         19.3740     7.2080    83.8540 HW2           1 RES     
    7071 OW           8.7690    24.2890    93.4080 OW            1 RES     
    7072 HW1          8.9750    24.9780    92.7140 HW1           1 RES     
    7073 HW2          8.8260    23.3780    93.0010 HW2           1 RES     
    7074 OW          13.2320    31.2120    78.8610 OW            1 RES     
    7075 HW1         12.5640    31.9370    78.6940 HW1           1 RES     
    7076 HW2         12.9580    30.6840    79.6650 HW2           1 RES     
    7077 OW           6.1510    25.1750    89.1480 OW            1 RES     
    7078 HW1          7.0780    25.1360    88.7760 HW1           1 RES     
    7079 HW2          6.1910    25.1530    90.1470 HW2           1 RES     
    7080 OW          14.8550    30.5740    83.7550 OW            1 RES     
    7081 HW1         14.4180    29.7290    84.0620 HW1           1 RES     
    7082 HW2         15.8460    30.4980    83.8670 HW2           1 RES     
    7083 OW          27.3870     9.0570    83.6730 OW            1 RES     
    7084 HW1         26.6630     8.6540    83.1150 HW1           1 RES     
    7085 HW2         27.9010     9.7180    83.1260 HW2           1 RES     
    7086 OW          23.7680    28.9860    84.0080 OW            1 RES     
    7087 HW1         24.0460    28.0260    84.0020 HW1           1 RES     
    7088 HW2         24.3370    29.5030    83.3680 HW2           1 RES     
    7089 OW          17.8730    28.0310    98.3900 OW            1 RES     
    7090 HW1         18.5740    28.5840    98.8390 HW1           1 RES     
    7091 HW2         18.2330    27.6690    97.5290 HW2           1 RES     
    7092 OW          12.2670    32.1560    87.0080 OW            1 RES     
    7093 HW1         11.7630    31.3170    86.8030 HW1           1 RES     
    7094 HW2         12.2640    32.3140    87.9950 HW2           1 RES     
    7095 OW          29.9710     5.9600    94.2910 OW            1 RES     
    7096 HW1         30.5010     6.7730    94.0510 HW1           1 RES     
    7097 HW2         30.4040     5.1510    93.8940 HW2           1 RES     
    7098 OW          20.8480     8.8700    89.2690 OW            1 RES     
    7099 HW1         21.0320     8.9040    90.2510 HW1           1 RES     
    7100 HW2         20.8370     7.9180    88.9640 HW2           1 RES     
    7101 OW          18.6450    25.6570    93.4350 OW            1 RES     
    7102 HW1         19.0950    25.2130    92.6610 HW1           1 RES     
    7103 HW2         19.2150    25.5640    94.2520 HW2           1 RES     
    7104 OW          26.2160    23.4390    86.5620 OW            1 RES     
    7105 HW1         26.8130    22.8770    85.9910 HW1           1 RES     
    7106 HW2         25.3440    22.9680    86.6980 HW2           1 RES     
    7107 OW          10.6540    12.0860    83.5710 OW            1 RES     
    7108 HW1          9.7240    11.7300    83.4790 HW1           1 RES     
    7109 HW2         10.8200    12.3420    84.5230 HW2           1 RES     
    7110 OW           8.9970    27.0380    80.8700 OW            1 RES     
    7111 HW1          8.3980    26.2400    80.8120 HW1           1 RES     
    7112 HW2          9.8760    26.7670    81.2640 HW2           1 RES     
    7113 OW           4.9730     6.8490    94.8890 OW            1 RES     
    7114 HW1          4.2300     7.5130    94.8100 HW1           1 RES     
    7115 HW2          5.8510     7.3270    94.8860 HW2           1 RES     
    7116 OW          26.7510    22.3100    90.4500 OW            1 RES     
    7117 HW1         26.4040    21.8390    91.2600 HW1           1 RES     
    7118 HW2         26.0060    22.8100    90.0090 HW2           1 RES     
    7119 OW          25.8330    12.3630    80.2320 OW            1 RES     
    7120 HW1         25.1840    12.7510    80.8860 HW1           1 RES     
    7121 HW2         26.7020    12.1810    80.6920 HW2           1 RES     
    7122 OW          15.2400    33.4730    79.5570 OW            1 RES     
    7123 HW1         14.6460    33.9460    78.9070 HW1           1 RES     
    7124 HW2         15.0800    33.8310    80.4780 HW2           1 RES     
    7125 OW          30.6800    37.8050    84.1220 OW            1 RES     
    7126 HW1         31.3710    37.0920    84.0000 HW1           1 RES     
    7127 HW2         29.7690    37.4100    84.0050 HW2           1 RES     
    7128 OW          31.0770     3.3840    80.9030 OW            1 RES     
    7129 HW1         31.0450     4.3740    80.7740 HW1           1 RES     
    7130 HW2         32.0300     3.0830    80.9450 HW2           1 RES     
    7131 OW          32.1240     3.8610    84.8710 OW            1 RES     
    7132 HW1         32.9880     4.2260    84.5230 HW1           1 RES     
    7133 HW2         32.3030     3.0410    85.4140 HW2           1 RES     
    7134 OW          29.2800    15.2080    88.2240 OW            1 RES     
    7135 HW1         30.2480    15.3240    88.0030 HW1           1 RES     
    7136 HW2         28.8560    16.1050    88.3470 HW2           1 RES     
    7137 OW          17.2630    14.6300    84.8150 OW            1 RES     
    7138 HW1         16.4080    15.1450    84.7780 HW1           1 RES     
    7139 HW2         17.0620    13.6570    84.9300 HW2           1 RES     
    7140 OW           8.8110    15.6980    98.9560 OW            1 RES     
    7141 HW1          9.5290    16.3900    99.0230 HW1           1 RES     
    7142 HW2          8.1690    15.8090    99.7150 HW2           1 RES     
    7143 OW          28.2630     4.2040    88.2440 OW            1 RES     
    7144 HW1         27.7100     3.3750    88.1600 HW1           1 RES     
    7145 HW2         29.2260     3.9550    88.3420 HW2           1 RES     
    7146 OW          16.4960    11.6350    79.8270 OW            1 RES     
    7147 HW1         16.2220    11.1290    79.0100 HW1           1 RES     
    7148 HW2         17.3990    11.3250    80.1250 HW2           1 RES     
    7149 OW          35.7200    14.7010    97.3610 OW            1 RES     
    7150 HW1         36.6620    14.8610    97.0670 HW1           1 RES     
    7151 HW2         35.2180    14.2310    96.6350 HW2           1 RES     
    7152 OW          20.1960    15.4260    84.2090 OW            1 RES     
    7153 HW1         20.9610    15.0650    84.7400 HW1           1 RES     
    7154 HW2         19.4520    14.7580    84.1980 HW2           1 RES     
    7155 OW          40.0710    37.4300    88.3710 OW            1 RES     
    7156 HW1         40.2700    37.4440    87.3920 HW1           1 RES     
    7157 HW2         40.9270    37.3730    88.8850 HW2           1 RES     
    7158 OW          13.7710    34.9570    95.4150 OW            1 RES     
    7159 HW1         13.9790    35.8740    95.7530 HW1           1 RES     
    7160 HW2         12.7850    34.7970    95.4680 HW2           1 RES     
    7161 OW          23.0810    25.8410    80.2300 OW            1 RES     
    7162 HW1         23.1780    24.9650    79.7590 HW1           1 RES     
    7163 HW2         23.8410    26.4400    79.9790 HW2           1 RES     
    7164 OW           4.0110    10.4080    93.1580 OW            1 RES     
    7165 HW1          4.0230     9.5140    93.6050 HW1           1 RES     
    7166 HW2          3.1760    10.8970    93.4120 HW2           1 RES     
    7167 OW          32.8800     8.7720    90.5880 OW            1 RES     
    7168 HW1         33.8770     8.7680    90.5200 HW1           1 RES     
    7169 HW2         32.5480     7.8330    90.6760 HW2           1 RES     
    7170 OW          19.7630    18.8970    80.5130 OW            1 RES     
    7171 HW1         18.8090    19.0420    80.7710 HW1           1 RES     
    7172 HW2         20.1270    19.7320    80.0980 HW2           1 RES     
    7173 OW          39.9340    15.6400    90.4970 OW            1 RES     
    7174 HW1         39.6780    14.7470    90.8650 HW1           1 RES     
    7175 HW2         40.9270    15.6800    90.3790 HW2           1 RES     
    7176 OW           9.6060    17.5540    97.1380 OW            1 RES     
    7177 HW1          9.9380    16.6480    96.8760 HW1           1 RES     
    7178 HW2          8.6080    17.5740    97.0800 HW2           1 RES     
    7179 OW           9.9690    23.7330    89.4980 OW            1 RES     
    7180 HW1          9.0400    23.5800    89.1630 HW1           1 RES     
    7181 HW2          9.9330    24.0540    90.4450 HW2           1 RES     
    7182 OW          10.0550    21.7480    87.1680 OW            1 RES     
    7183 HW1          9.2430    21.3320    87.5780 HW1           1 RES     
    7184 HW2         10.7460    21.0430    87.0080 HW2           1 RES     
    7185 OW          27.9810    25.7650    95.5650 OW            1 RES     
    7186 HW1         27.2700    26.2560    96.0670 HW1           1 RES     
    7187 HW2         28.7990    25.6860    96.1360 HW2           1 RES     
    7188 OW          30.7600    15.9210    97.6480 OW            1 RES     
    7189 HW1         29.9260    15.3700    97.6410 HW1           1 RES     
    7190 HW2         31.0490    16.1010    96.7080 HW2           1 RES     
    7191 OW          22.8200    13.1650    80.8710 OW            1 RES     
    7192 HW1         22.8000    13.2910    79.8800 HW1           1 RES     
    7193 HW2         21.9960    13.5610    81.2760 HW2           1 RES     
    7194 OW          11.4020     9.4960    85.5700 OW            1 RES     
    7195 HW1         11.0940    10.4460    85.6040 HW1           1 RES     
    7196 HW2         12.1160     9.4010    84.8760 HW2           1 RES     
    7197 OW           6.5500    18.3310    86.1470 OW            1 RES     
    7198 HW1          5.8500    17.6250    86.2500 HW1           1 RES     
    7199 HW2          7.4560    17.9110    86.1850 HW2           1 RES     
    7200 OW          32.3110    36.1220    85.9500 OW            1 RES     
    7201 HW1         31.8500    35.2360    85.9270 HW1           1 RES     
    7202 HW2         31.6490    36.8370    86.1760 HW2           1 RES     
    7203 OW          39.9560    30.6570    87.0010 OW            1 RES     
    7204 HW1         40.7800    30.2190    87.3580 HW1           1 RES     
    7205 HW2         40.1960    31.5380    86.5930 HW2           1 RES     
    7206 OW          12.1200     6.5920    88.5150 OW            1 RES     
    7207 HW1         12.1060     7.5890    88.5830 HW1           1 RES     
    7208 HW2         11.1860     6.2400    88.5800 HW2           1 RES     
    7209 OW          23.1930     2.5000    83.7470 OW            1 RES     
    7210 HW1         22.9910     3.4020    84.1290 HW1           1 RES     
    7211 HW2         24.1110     2.5030    83.3510 HW2           1 RES     
    7212 OW          22.2450    12.7440    97.4500 OW            1 RES     
    7213 HW1         23.1300    12.8200    96.9910 HW1           1 RES     
    7214 HW2         22.1600    11.8370    97.8630 HW2           1 RES     
    7215 OW          20.4330    30.2290    90.6690 OW            1 RES     
    7216 HW1         19.8980    31.0320    90.9290 HW1           1 RES     
    7217 HW2         20.7870    29.7830    91.4910 HW2           1 RES     
    7218 OW          35.9770    25.3440    91.9050 OW            1 RES     
    7219 HW1         34.9790    25.3530    91.8650 HW1           1 RES     
    7220 HW2         36.3080    26.2450    92.1860 HW2           1 RES     
    7221 OW          18.7430    10.1730    90.7270 OW            1 RES     
    7222 HW1         18.2500    11.0050    90.9800 HW1           1 RES     
    7223 HW2         19.5010    10.0280    91.3620 HW2           1 RES     
    7224 OW          33.4400    40.9230    82.2360 OW            1 RES     
    7225 HW1         32.5110    40.9100    81.8680 HW1           1 RES     
    7226 HW2         33.8550    40.0200    82.1280 HW2           1 RES     
    7227 OW          18.6670    27.1640    85.0280 OW            1 RES     
    7228 HW1         17.6780    27.2010    85.1620 HW1           1 RES     
    7229 HW2         19.0240    28.0910    84.9160 HW2           1 RES     
    7230 OW          21.2050    24.5210    99.3440 OW            1 RES     
    7231 HW1         22.0730    24.7850    98.9250 HW1           1 RES     
    7232 HW2         21.2930    24.5460   100.3400 HW2           1 RES     
    7233 OW          20.5290    39.7450    92.9300 OW            1 RES     
    7234 HW1         21.4440    39.8140    92.5340 HW1           1 RES     
    7235 HW2         19.9640    40.5000    92.5970 HW2           1 RES     
    7236 OW          11.2690    29.6920    83.8060 OW            1 RES     
    7237 HW1         11.1580    28.6990    83.8330 HW1           1 RES     
    7238 HW2         12.2430    29.9190    83.7860 HW2           1 RES     
    7239 OW          25.7000     8.1030    96.1290 OW            1 RES     
    7240 HW1         26.0920     7.9040    95.2310 HW1           1 RES     
    7241 HW2         26.3320     8.6780    96.6490 HW2           1 RES     
    7242 OW          20.7930    35.3630   100.1600 OW            1 RES     
    7243 HW1         21.4570    34.6210   100.0760 HW1           1 RES     
    7244 HW2         21.2710    36.2180   100.3600 HW2           1 RES     
    7245 OW          19.8910    31.9310    99.7290 OW            1 RES     
    7246 HW1         19.2930    32.5120   100.2800 HW1           1 RES     
    7247 HW2         20.8440    32.0990    99.9790 HW2           1 RES     
    7248 OW          34.7740    30.6540    80.5790 OW            1 RES     
    7249 HW1         34.2830    31.3280    80.0290 HW1           1 RES     
    7250 HW2         34.1190    30.1100    81.1040 HW2           1 RES     
    7251 OW          26.3540    34.5720   100.0380 OW            1 RES     
    7252 HW1         25.4070    34.2560   100.0860 HW1           1 RES     
    7253 HW2         26.9700    33.7840   100.0550 HW2           1 RES     
    7254 OW          24.1770    19.9730    96.0110 OW            1 RES     
    7255 HW1         25.0540    19.6970    96.4010 HW1           1 RES     
    7256 HW2         23.5140    19.2310    96.1220 HW2           1 RES     
    7257 OW          28.5460    16.1280    79.9350 OW            1 RES     
    7258 HW1         28.2220    15.2430    80.2680 HW1           1 RES     
    7259 HW2         28.5770    16.7790    80.6940 HW2           1 RES     
    7260 OW          39.3840    28.6370    80.8090 OW            1 RES     
    7261 HW1         40.1390    27.9890    80.7090 HW1           1 RES     
    7262 HW2         38.5220    28.1360    80.8880 HW2           1 RES     
    7263 OW          38.3130    35.4400   100.3640 OW            1 RES     
    7264 HW1         38.6310    35.6430    99.4380 HW1           1 RES     
    7265 HW2         37.8090    34.5760   100.3620 HW2           1 RES     
    7266 OW          23.5230    25.3880    92.1500 OW            1 RES     
    7267 HW1         23.6490    25.9370    91.3250 HW1           1 RES     
    7268 HW2         24.4080    25.0340    92.4540 HW2           1 RES     
    7269 OW          14.5840    29.8340    96.3220 OW            1 RES     
    7270 HW1         13.6650    30.1490    96.0890 HW1           1 RES     
    7271 HW2         14.6180    28.8350    96.2680 HW2           1 RES     
    7272 OW          28.0710    11.4440    99.5750 OW            1 RES     
    7273 HW1         27.8890    12.3500    99.9570 HW1           1 RES     
    7274 HW2         28.9570    11.1150    99.9030 HW2           1 RES     
    7275 OW          23.8860    24.4270    94.6370 OW            1 RES     
    7276 HW1         24.8100    24.0690    94.7690 HW1           1 RES     
    7277 HW2         23.2210    23.6890    94.7600 HW2           1 RES     
    7278 OW          28.0420     8.9570    90.1820 OW            1 RES     
    7279 HW1         27.0440     8.9730    90.2370 HW1           1 RES     
    7280 HW2         28.4200     9.6710    90.7710 HW2           1 RES     
    7281 OW           2.5630     7.4500    92.6290 OW            1 RES     
    7282 HW1          3.4240     7.6920    92.1830 HW1           1 RES     
    7283 HW2          2.5010     7.9170    93.5110 HW2           1 RES     
    7284 OW          15.8510    38.7900    85.3300 OW            1 RES     
    7285 HW1         15.8510    38.0590    86.0110 HW1           1 RES     
    7286 HW2         15.0130    39.3290    85.4180 HW2           1 RES     
    7287 OW          10.8710    35.0970    94.2020 OW            1 RES     
    7288 HW1         11.5500    34.6070    93.6570 HW1           1 RES     
    7289 HW2         11.2340    35.9910    94.4630 HW2           1 RES     
    7290 OW          30.8100    24.3480    83.8480 OW            1 RES     
    7291 HW1         30.6630    24.6710    84.7820 HW1           1 RES     
    7292 HW2         30.2730    24.9040    83.2130 HW2           1 RES     
    7293 OW          33.6820    18.2540    94.1170 OW            1 RES     
    7294 HW1         33.1320    18.0340    94.9220 HW1           1 RES     
    7295 HW2         33.2980    17.7970    93.3150 HW2           1 RES     
    7296 OW           7.3290    34.1270   100.3600 OW            1 RES     
    7297 HW1          6.5150    34.3620    99.8300 HW1           1 RES     
    7298 HW2          7.7300    33.2840   100.0010 HW2           1 RES     
    7299 OW          37.9370    16.9210    87.7750 OW            1 RES     
    7300 HW1         36.9410    17.0080    87.7890 HW1           1 RES     
    7301 HW2         38.3490    17.8250    87.6530 HW2           1 RES     
    7302 OW          29.3190    30.7240    87.3840 OW            1 RES     
    7303 HW1         28.5510    31.3590    87.3070 HW1           1 RES     
    7304 HW2         28.9720    29.7920    87.4910 HW2           1 RES     
    7305 OW          32.5400    17.1710    79.5240 OW            1 RES     
    7306 HW1         33.3410    16.5740    79.5520 HW1           1 RES     
    7307 HW2         32.5560    17.7880    80.3120 HW2           1 RES     
    7308 OW          17.8490    38.3160    83.2170 OW            1 RES     
    7309 HW1         17.2380    37.5310    83.1170 HW1           1 RES     
    7310 HW2         18.7850    37.9950    83.3590 HW2           1 RES     
    7311 OW          25.5380    37.2170    99.8210 OW            1 RES     
    7312 HW1         26.4770    37.4440   100.0770 HW1           1 RES     
    7313 HW2         25.2250    36.4340   100.3600 HW2           1 RES     
    7314 OW          25.8930    17.3910    96.1120 OW            1 RES     
    7315 HW1         26.1440    16.4580    95.8570 HW1           1 RES     
    7316 HW2         24.9580    17.5800    95.8100 HW2           1 RES     
    7317 OW          31.1800    39.1910    87.5000 OW            1 RES     
    7318 HW1         31.5460    39.8320    88.1740 HW1           1 RES     
    7319 HW2         31.9110    38.9050    86.8810 HW2           1 RES     
    7320 OW          18.3820    16.7620    86.3020 OW            1 RES     
    7321 HW1         18.7880    16.2000    87.0220 HW1           1 RES     
    7322 HW2         17.3950    16.8340    86.4510 HW2           1 RES     
    7323 OW          11.5650    24.1360    80.7560 OW            1 RES     
    7324 HW1         12.3520    24.0340    81.3630 HW1           1 RES     
    7325 HW2         11.0260    23.2930    80.7640 HW2           1 RES     
    7326 OW          39.1580    17.5900    94.0900 OW            1 RES     
    7327 HW1         40.0960    17.7160    94.4110 HW1           1 RES     
    7328 HW2         39.1130    16.7860    93.4970 HW2           1 RES     
    7329 OW          15.3340    11.4300    81.8720 OW            1 RES     
    7330 HW1         15.1760    12.3990    81.6840 HW1           1 RES     
    7331 HW2         16.3080    11.2760    82.0350 HW2           1 RES     
    7332 OW          17.9240    38.2970    98.1760 OW            1 RES     
    7333 HW1         17.0810    38.7730    97.9290 HW1           1 RES     
    7334 HW2         18.6560    38.9640    98.3150 HW2           1 RES     
    7335 OW          26.8300    19.1900    98.0230 OW            1 RES     
    7336 HW1         26.7120    18.2700    98.3940 HW1           1 RES     
    7337 HW2         27.6720    19.5910    98.3840 HW2           1 RES     
    7338 OW          38.1910    16.3350   100.2770 OW            1 RES     
    7339 HW1         37.6440    17.1720   100.2830 HW1           1 RES     
    7340 HW2         37.5840    15.5400   100.2790 HW2           1 RES     
    7341 OW          16.6280    19.3340    82.1260 OW            1 RES     
    7342 HW1         17.3530    20.0210    82.1250 HW1           1 RES     
    7343 HW2         17.0340    18.4200    82.1230 HW2           1 RES     
    7344 OW          30.2370    34.7600    87.3560 OW            1 RES     
    7345 HW1         30.4210    35.5600    87.9270 HW1           1 RES     
    7346 HW2         29.7320    34.0800    87.8870 HW2           1 RES     
    7347 OW          18.6220    13.6400    78.9550 OW            1 RES     
    7348 HW1         18.3020    12.7300    78.6930 HW1           1 RES     
    7349 HW2         18.1520    13.9320    79.7890 HW2           1 RES     
    7350 OW          39.3530    35.5600    80.4820 OW            1 RES     
    7351 HW1         38.5980    34.9600    80.7430 HW1           1 RES     
    7352 HW2         40.2160    35.0580    80.5450 HW2           1 RES     
    7353 OW          36.8520    12.7240    96.5830 OW            1 RES     
    7354 HW1         36.3610    12.0300    97.1080 HW1           1 RES     
    7355 HW2         36.5020    12.7440    95.6460 HW2           1 RES     
    7356 OW           7.4710     3.8640    89.6830 OW            1 RES     
    7357 HW1          7.0880     3.6430    90.5790 HW1           1 RES     
    7358 HW2          7.7380     3.0200    89.2170 HW2           1 RES     
    7359 OW          14.3540    34.0760    89.2150 OW            1 RES     
    7360 HW1         15.3170    33.8690    89.0440 HW1           1 RES     
    7361 HW2         14.2580    35.0440    89.4510 HW2           1 RES     
    7362 OW          17.1650    24.3890    79.6550 OW            1 RES     
    7363 HW1         17.5260    23.9280    80.4650 HW1           1 RES     
    7364 HW2         17.8970    24.5080    78.9830 HW2           1 RES     
    7365 OW          24.4930     7.5960    86.8000 OW            1 RES     
    7366 HW1         24.9780     6.8230    87.2080 HW1           1 RES     
    7367 HW2         23.8440     7.2590    86.1160 HW2           1 RES     
    7368 OW          21.9220    12.7650    86.1920 OW            1 RES     
    7369 HW1         21.9120    13.2520    87.0640 HW1           1 RES     
    7370 HW2         22.4910    11.9460    86.2740 HW2           1 RES     
    7371 OW          15.7290     7.9520    96.1010 OW            1 RES     
    7372 HW1         15.8280     7.1150    96.6390 HW1           1 RES     
    7373 HW2         14.8280     8.3530    96.2700 HW2           1 RES     
    7374 OW          30.2000    27.5560    83.4720 OW            1 RES     
    7375 HW1         29.4290    26.9310    83.3600 HW1           1 RES     
    7376 HW2         29.8620    28.4590    83.7390 HW2           1 RES     
    7377 OW          37.7640    25.8940    81.2430 OW            1 RES     
    7378 HW1         38.2630    25.6190    82.0640 HW1           1 RES     
    7379 HW2         37.3340    25.0910    80.8290 HW2           1 RES     
    7380 OW          27.3690    33.3350    93.9800 OW            1 RES     
    7381 HW1         27.9040    34.1680    94.1150 HW1           1 RES     
    7382 HW2         26.4320    33.5770    93.7260 HW2           1 RES     
    7383 OW          12.6240     8.8310    92.4610 OW            1 RES     
    7384 HW1         11.8040     8.9700    93.0140 HW1           1 RES     
    7385 HW2         12.7070     7.8640    92.2210 HW2           1 RES     
    7386 OW          19.9120    34.0780    87.1550 OW            1 RES     
    7387 HW1         19.3380    33.2800    87.3310 HW1           1 RES     
    7388 HW2         19.5060    34.6260    86.4230 HW2           1 RES     
    7389 OW          21.2950    40.2590    89.7010 OW            1 RES     
    7390 HW1         21.7120    40.9270    90.3170 HW1           1 RES     
    7391 HW2         21.9400    40.0310    88.9710 HW2           1 RES     
    7392 OW          15.2320    13.1840    86.1180 OW            1 RES     
    7393 HW1         14.5070    12.6390    86.5380 HW1           1 RES     
    7394 HW2         14.9570    14.1450    86.0950 HW2           1 RES     
    7395 OW          14.0650    37.6840    84.3060 OW            1 RES     
    7396 HW1         14.6820    37.0350    83.8620 HW1           1 RES     
    7397 HW2         13.1190    37.3900    84.1730 HW2           1 RES     
    7398 OW          33.8040    10.1010    79.7530 OW            1 RES     
    7399 HW1         34.7750    10.1710    79.5280 HW1           1 RES     
    7400 HW2         33.5620    10.8140    80.4120 HW2           1 RES     
    7401 OW          40.9230    29.0650    96.6030 OW            1 RES     
    7402 HW1         40.3040    28.2900    96.7230 HW1           1 RES     
    7403 HW2         40.5050    29.7350    95.9890 HW2           1 RES     
    7404 OW          28.0460    15.9810    84.5770 OW            1 RES     
    7405 HW1         28.6460    15.3460    85.0620 HW1           1 RES     
    7406 HW2         27.2110    15.5050    84.3000 HW2           1 RES     
    7407 OW          26.8260    40.6690    92.5960 OW            1 RES     
    7408 HW1         27.0490    40.9270    91.6570 HW1           1 RES     
    7409 HW2         27.4020    39.9000    92.8770 HW2           1 RES     
    7410 OW          33.6150    27.9580    79.5320 OW            1 RES     
    7411 HW1         34.1570    27.9230    78.6930 HW1           1 RES     
    7412 HW2         33.1480    28.8400    79.5920 HW2           1 RES     
    7413 OW          34.2820    10.4100    91.9280 OW            1 RES     
    7414 HW1         33.2830    10.4500    91.9530 HW1           1 RES     
    7415 HW2         34.6560    11.3280    92.0610 HW2           1 RES     
    7416 OW          25.5750    12.2030    87.1060 OW            1 RES     
    7417 HW1         24.8450    11.6270    86.7370 HW1           1 RES     
    7418 HW2         26.4610    11.8530    86.8020 HW2           1 RES     
    7419 OW          21.8850    28.7000    88.5310 OW            1 RES     
    7420 HW1         21.9330    27.8060    88.9760 HW1           1 RES     
    7421 HW2         20.9650    29.0770    88.6400 HW2           1 RES     
    7422 OW          14.1470     3.3740    90.3870 OW            1 RES     
    7423 HW1         14.2530     2.5960    89.7670 HW1           1 RES     
    7424 HW2         14.4580     3.1160    91.3020 HW2           1 RES     
    7425 OW          12.6250     5.8190    97.3880 OW            1 RES     
    7426 HW1         12.7580     6.6800    96.8980 HW1           1 RES     
    7427 HW2         11.8200     5.8910    97.9770 HW2           1 RES     
    7428 OW          14.7320     6.6860    88.0820 OW            1 RES     
    7429 HW1         14.1890     7.5000    87.8810 HW1           1 RES     
    7430 HW2         14.1470     5.8760    88.0440 HW2           1 RES     
    7431 OW           7.7940    14.0080    93.7560 OW            1 RES     
    7432 HW1          7.7390    14.2070    94.7340 HW1           1 RES     
    7433 HW2          8.1400    14.8110    93.2700 HW2           1 RES     
    7434 OW          38.2250    11.3070    85.4650 OW            1 RES     
    7435 HW1         38.1730    10.6640    84.7010 HW1           1 RES     
    7436 HW2         37.3940    11.8640    85.4900 HW2           1 RES     
    7437 OW           8.1470    26.0920    90.5110 OW            1 RES     
    7438 HW1          7.6150    26.8300    90.0970 HW1           1 RES     
    7439 HW2          9.0370    26.0270    90.0570 HW2           1 RES     
    7440 OW          29.5500     7.9870    95.6210 OW            1 RES     
    7441 HW1         28.6040     7.6780    95.5300 HW1           1 RES     
    7442 HW2         29.5720     8.9860    95.6670 HW2           1 RES     
    7443 OW          20.2120    24.0940    95.6150 OW            1 RES     
    7444 HW1         19.3670    23.6480    95.3220 HW1           1 RES     
    7445 HW2         20.9930    23.6600    95.1660 HW2           1 RES     
    7446 OW          13.2030    21.6700    90.3800 OW            1 RES     
    7447 HW1         12.4520    22.0050    89.8110 HW1           1 RES     
    7448 HW2         13.2500    22.2100    91.2210 HW2           1 RES     
    7449 OW          20.4030    14.9750    80.7250 OW            1 RES     
    7450 HW1         20.0040    15.1180    79.8200 HW1           1 RES     
    7451 HW2         20.5410    15.8590    81.1720 HW2           1 RES     
    7452 OW          24.8750     9.2730    94.0130 OW            1 RES     
    7453 HW1         24.7620    10.2310    94.2740 HW1           1 RES     
    7454 HW2         24.9530     9.2050    93.0180 HW2           1 RES     
    7455 OW          15.7890     6.4500    85.2290 OW            1 RES     
    7456 HW1         15.8090     6.7960    86.1660 HW1           1 RES     
    7457 HW2         15.8440     5.4510    85.2410 HW2           1 RES     
    7458 OW          24.4340    34.3780    91.8360 OW            1 RES     
    7459 HW1         24.4390    33.6320    91.1700 HW1           1 RES     
    7460 HW2         23.6500    34.2750    92.4480 HW2           1 RES     
    7461 OW          31.5520    38.5250    98.1420 OW            1 RES     
    7462 HW1         31.1070    37.9370    98.8180 HW1           1 RES     
    7463 HW2         32.5440    38.4600    98.2450 HW2           1 RES     
    7464 OW           5.9920    28.2820    86.0190 OW            1 RES     
    7465 HW1          6.3220    28.1330    85.0870 HW1           1 RES     
    7466 HW2          4.9980    28.3880    86.0080 HW2           1 RES     
    7467 OW          20.1420    13.8580    97.3880 OW            1 RES     
    7468 HW1         20.4160    13.5680    96.4720 HW1           1 RES     
    7469 HW2         20.2470    14.8500    97.4690 HW2           1 RES     
    7470 OW          21.7060     8.1070    79.5320 OW            1 RES     
    7471 HW1         22.1750     8.4100    78.7030 HW1           1 RES     
    7472 HW2         22.2230     7.3640    79.9560 HW2           1 RES     
    7473 OW          35.4230    15.6910    92.3890 OW            1 RES     
    7474 HW1         34.9120    14.8330    92.4190 HW1           1 RES     
    7475 HW2         34.7840    16.4610    92.3950 HW2           1 RES     
    7476 OW          21.2460    33.5150    91.2280 OW            1 RES     
    7477 HW1         20.2600    33.4460    91.3720 HW1           1 RES     
    7478 HW2         21.4900    34.4650    91.0310 HW2           1 RES     
    7479 OW          35.1650    31.0310    89.6370 OW            1 RES     
    7480 HW1         35.6470    31.7050    90.1960 HW1           1 RES     
    7481 HW2         34.2040    31.2940    89.5500 HW2           1 RES     
    7482 OW          25.0110    21.0840    89.0590 OW            1 RES     
    7483 HW1         24.2480    21.6580    89.3530 HW1           1 RES     
    7484 HW2         25.1440    20.3430    89.7180 HW2           1 RES     
    7485 OW          15.8450    15.4860    88.2700 OW            1 RES     
    7486 HW1         15.1990    16.2440    88.1800 HW1           1 RES     
    7487 HW2         16.7770    15.8460    88.3180 HW2           1 RES     
    7488 OW          20.1990    18.4310   100.0530 OW            1 RES     
    7489 HW1         19.6080    18.4750    99.2480 HW1           1 RES     
    7490 HW2         20.7430    17.5920   100.0220 HW2           1 RES     
    7491 OW           8.1400    10.1130    88.0310 OW            1 RES     
    7492 HW1          7.2650    10.4740    88.3510 HW1           1 RES     
    7493 HW2          8.3810    10.5430    87.1600 HW2           1 RES     
    7494 OW          29.9100     4.5130    99.7700 OW            1 RES     
    7495 HW1         29.3050     3.9830   100.3640 HW1           1 RES     
    7496 HW2         30.4140     3.8930    99.1680 HW2           1 RES     
    7497 OW          30.3590     9.4660    85.6250 OW            1 RES     
    7498 HW1         30.3450    10.4460    85.4310 HW1           1 RES     
    7499 HW2         30.1660     9.3150    86.5950 HW2           1 RES     
    7500 OW          40.4800    32.2690    96.6270 OW            1 RES     
    7501 HW1         40.9230    32.3190    95.7320 HW1           1 RES     
    7502 HW2         40.8380    32.9930    97.2170 HW2           1 RES     
    7503 OW          22.4600    15.4430    83.1740 OW            1 RES     
    7504 HW1         22.6370    14.4590    83.1790 HW1           1 RES     
    7505 HW2         23.3290    15.9380    83.1720 HW2           1 RES     
    7506 OW          22.9200     9.0100    83.7080 OW            1 RES     
    7507 HW1         22.8120    10.0010    83.7740 HW1           1 RES     
    7508 HW2         22.7810     8.5980    84.6090 HW2           1 RES     
    7509 OW          23.1180    39.1120    81.0980 OW            1 RES     
    7510 HW1         23.1940    40.0240    81.5000 HW1           1 RES     
    7511 HW2         22.1540    38.8560    81.0280 HW2           1 RES     
    7512 OW          23.0770    36.7210    96.8830 OW            1 RES     
    7513 HW1         22.1800    37.0810    96.6290 HW1           1 RES     
    7514 HW2         23.7900    37.2400    96.4120 HW2           1 RES     
    7515 OW          22.0370    20.0780    88.5690 OW            1 RES     
    7516 HW1         21.3240    19.4060    88.7670 HW1           1 RES     
    7517 HW2         22.8830    19.6050    88.3230 HW2           1 RES     
    7518 OW           9.2600     9.4530    80.9430 OW            1 RES     
    7519 HW1          8.9120     9.1310    81.8230 HW1           1 RES     
    7520 HW2         10.1530     9.8850    81.0760 HW2           1 RES     
    7521 OW          12.2730    27.9900    93.3430 OW            1 RES     
    7522 HW1         11.7060    28.1660    92.5390 HW1           1 RES     
    7523 HW2         11.7710    28.2490    94.1680 HW2           1 RES     
    7524 OW          10.0630    38.4920    85.7730 OW            1 RES     
    7525 HW1         10.5630    38.2030    84.9580 HW1           1 RES     
    7526 HW2          9.1460    38.7970    85.5130 HW2           1 RES     
    7527 OW          25.9350    37.0620    93.5010 OW            1 RES     
    7528 HW1         25.4720    36.8910    92.6330 HW1           1 RES     
    7529 HW2         26.0090    38.0480    93.6520 HW2           1 RES     
    7530 OW          39.9560    14.5950    96.5720 OW            1 RES     
    7531 HW1         40.8300    14.9050    96.2010 HW1           1 RES     
    7532 HW2         39.8560    13.6120    96.4170 HW2           1 RES     
    7533 OW          16.4280    10.4930    86.4400 OW            1 RES     
    7534 HW1         17.4070    10.4560    86.2440 HW1           1 RES     
    7535 HW2         16.2640    10.1990    87.3820 HW2           1 RES     
    7536 OW          38.8620    28.8310    88.7320 OW            1 RES     
    7537 HW1         39.2160    28.7370    87.8030 HW1           1 RES     
    7538 HW2         37.8690    28.7150    88.7250 HW2           1 RES     
    7539 OW          22.2700    11.0330    95.0040 OW            1 RES     
    7540 HW1         21.6760    10.2380    94.8890 HW1           1 RES     
    7541 HW2         21.7270    11.8690    94.9320 HW2           1 RES     
    7542 OW          27.6510    27.3110    79.9490 OW            1 RES     
    7543 HW1         27.3070    28.2480    80.0030 HW1           1 RES     
    7544 HW2         27.4500    26.8320    80.8040 HW2           1 RES     
    7545 OW          15.2830    14.3020    78.7160 OW            1 RES     
    7546 HW1         16.2770    14.4050    78.7400 HW1           1 RES     
    7547 HW2         15.0440    13.3410    78.8570 HW2           1 RES     
    7548 OW           5.0210    20.9360    93.0710 OW            1 RES     
    7549 HW1          4.7630    21.7510    93.5870 HW1           1 RES     
    7550 HW2          5.5550    21.2030    92.2680 HW2           1 RES     
    7551 OW           7.6370     6.8770    83.5090 OW            1 RES     
    7552 HW1          6.9050     6.1970    83.4860 HW1           1 RES     
    7553 HW2          7.4330     7.5630    84.2070 HW2           1 RES     
    7554 OW           8.5350     9.0650    93.1610 OW            1 RES     
    7555 HW1          9.4380     8.7540    92.8680 HW1           1 RES     
    7556 HW2          8.5430    10.0590    93.2700 HW2           1 RES     
    7557 OW           7.1760    11.8930    92.2680 OW            1 RES     
    7558 HW1          6.6110    12.6990    92.4410 HW1           1 RES     
    7559 HW2          6.6240    11.1870    91.8240 HW2           1 RES     
    7560 OW          24.3000    13.9910    85.4590 OW            1 RES     
    7561 HW1         24.1190    13.5980    84.5570 HW1           1 RES     
    7562 HW2         23.4430    14.3180    85.8580 HW2           1 RES     
    7563 OW          13.8770     5.9850    90.9310 OW            1 RES     
    7564 HW1         14.5130     5.3260    91.3320 HW1           1 RES     
    7565 HW2         13.4570     5.5900    90.1140 HW2           1 RES     
    7566 OW          17.1720    32.4120    90.2190 OW            1 RES     
    7567 HW1         18.0640    32.2080    90.6200 HW1           1 RES     
    7568 HW2         16.4500    32.1630    90.8640 HW2           1 RES     
    7569 OW          39.6960     2.9490    82.7080 OW            1 RES     
    7570 HW1         40.2490     3.0840    81.8870 HW1           1 RES     
    7571 HW2         38.7350     2.8460    82.4500 HW2           1 RES     
    7572 OW          23.6620     2.9760    90.8510 OW            1 RES     
    7573 HW1         24.4990     2.5020    91.1220 HW1           1 RES     
    7574 HW2         23.2430     2.5000    90.0770 HW2           1 RES     
    7575 OW          20.3500     4.8190    96.5110 OW            1 RES     
    7576 HW1         20.5050     4.8200    95.5230 HW1           1 RES     
    7577 HW2         19.7090     5.5490    96.7480 HW2           1 RES     
    7578 OW           6.2400    17.9030    96.9690 OW            1 RES     
    7579 HW1          6.7620    18.7020    96.6730 HW1           1 RES     
    7580 HW2          5.8650    18.0690    97.8810 HW2           1 RES     
    7581 OW          21.5860    37.7320    89.7610 OW            1 RES     
    7582 HW1         22.2730    38.0570    90.4100 HW1           1 RES     
    7583 HW2         21.8170    36.8030    89.4680 HW2           1 RES     
    7584 OW          16.8340     7.8900    82.5960 OW            1 RES     
    7585 HW1         17.3910     8.7140    82.4980 HW1           1 RES     
    7586 HW2         17.4190     7.1190    82.8480 HW2           1 RES     
    7587 OW          39.2640    18.5640    92.1210 OW            1 RES     
    7588 HW1         38.6890    19.1860    91.5900 HW1           1 RES     
    7589 HW2         40.1920    18.9340    92.1780 HW2           1 RES     
    7590 OW          22.0860     8.9860    81.6020 OW            1 RES     
    7591 HW1         21.8010     9.9230    81.8010 HW1           1 RES     
    7592 HW2         21.4680     8.3450    82.0560 HW2           1 RES     
    7593 OW          33.1460    36.2850    97.0370 OW            1 RES     
    7594 HW1         34.0890    35.9940    97.1940 HW1           1 RES     
    7595 HW2         33.1430    37.1680    96.5670 HW2           1 RES     
    7596 OW          17.0330     2.5040    92.1620 OW            1 RES     
    7597 HW1         17.1200     3.4360    91.8140 HW1           1 RES     
    7598 HW2         17.1900     2.5000    93.1500 HW2           1 RES     
    7599 OW           2.6990    30.8110    97.8440 OW            1 RES     
    7600 HW1          2.5000    31.5020    97.1500 HW1           1 RES     
    7601 HW2          3.6520    30.8950    98.1350 HW2           1 RES     
    7602 OW          32.4950     2.6870    94.7430 OW            1 RES     
    7603 HW1         31.7230     2.9970    95.2970 HW1           1 RES     
    7604 HW2         33.2790     2.5020    95.3360 HW2           1 RES     
    7605 OW           6.7220    23.1680    95.5690 OW            1 RES     
    7606 HW1          6.1600    23.4300    94.7850 HW1           1 RES     
    7607 HW2          6.3410    22.3460    95.9930 HW2           1 RES     
    7608 OW          30.3340    32.0250    92.5100 OW            1 RES     
    7609 HW1         29.6500    32.5630    93.0010 HW1           1 RES     
    7610 HW2         30.1550    32.0730    91.5270 HW2           1 RES     
    7611 OW          10.0370    17.6870    91.9700 OW            1 RES     
    7612 HW1          9.3210    16.9910    92.0010 HW1           1 RES     
    7613 HW2         10.9010    17.2640    91.6950 HW2           1 RES     
    7614 OW          30.7950    35.4010    95.0860 OW            1 RES     
    7615 HW1         30.5870    36.1460    94.4540 HW1           1 RES     
    7616 HW2         31.6350    35.6120    95.5870 HW2           1 RES     
    7617 OW          27.6510    25.8880    85.3410 OW            1 RES     
    7618 HW1         28.6290    26.0450    85.2080 HW1           1 RES     
    7619 HW2         27.4960    24.9250    85.5640 HW2           1 RES     
    7620 OW          17.4190    36.0990    97.3530 OW            1 RES     
    7621 HW1         18.0710    36.5990    96.7850 HW1           1 RES     
    7622 HW2         16.6090    36.6640    97.5090 HW2           1 RES     
    7623 OW          12.6110    32.6130    95.2370 OW            1 RES     
    7624 HW1         12.3550    31.9070    95.8960 HW1           1 RES     
    7625 HW2         13.6080    32.6880    95.1970 HW2           1 RES     
    7626 OW          18.0930     3.9990    87.9090 OW            1 RES     
    7627 HW1         18.6130     4.6940    87.4120 HW1           1 RES     
    7628 HW2         18.2780     3.0990    87.5150 HW2           1 RES     
    7629 OW          38.6250    21.5880    99.0820 OW            1 RES     
    7630 HW1         39.5550    21.7930    99.3860 HW1           1 RES     
    7631 HW2         38.0040    22.3040    99.4000 HW2           1 RES     
    7632 OW          15.5960    29.1600    78.7990 OW            1 RES     
    7633 HW1         14.8820    29.7090    79.2310 HW1           1 RES     
    7634 HW2         15.2760    28.2180    78.6940 HW2           1 RES     
    7635 OW          40.9270     6.7480    92.1970 OW            1 RES     
    7636 HW1         40.9270     6.4750    93.1580 HW1           1 RES     
    7637 HW2         40.0870     7.2520    91.9930 HW2           1 RES     
    7638 OW          27.6480    22.5110    93.1150 OW            1 RES     
    7639 HW1         26.7690    22.9830    93.1800 HW1           1 RES     
    7640 HW2         28.3870    23.1850    93.0840 HW2           1 RES     
    7641 OW          22.5850     4.8310    99.1390 OW            1 RES     
    7642 HW1         21.6020     5.0080    99.1080 HW1           1 RES     
    7643 HW2         22.7490     3.8460    99.0870 HW2           1 RES     
    7644 OW          31.0750    28.2530    92.0110 OW            1 RES     
    7645 HW1         31.4310    27.7550    91.2210 HW1           1 RES     
    7646 HW2         31.8280    28.7060    92.4880 HW2           1 RES     
    7647 OW          16.8790    37.4580    78.8120 OW            1 RES     
    7648 HW1         17.2550    38.3810    78.7330 HW1           1 RES     
    7649 HW2         15.8870    37.4910    78.6940 HW2           1 RES     
    7650 OW          23.7110    36.4110    90.6600 OW            1 RES     
    7651 HW1         23.5060    35.5400    90.2130 HW1           1 RES     
    7652 HW2         23.4750    36.3530    91.6300 HW2           1 RES     
    7653 OW           7.8480    23.0740    86.0820 OW            1 RES     
    7654 HW1          7.6220    22.1300    86.3230 HW1           1 RES     
    7655 HW2          8.6750    23.3530    86.5690 HW2           1 RES     
    7656 OW          35.4710    13.2120    99.3280 OW            1 RES     
    7657 HW1         35.7780    13.8220   100.0580 HW1           1 RES     
    7658 HW2         34.5670    12.8480    99.5550 HW2           1 RES     
    7659 OW          20.9290    15.6740    95.4890 OW            1 RES     
    7660 HW1         21.7410    15.1120    95.6360 HW1           1 RES     
    7661 HW2         21.1860    16.5150    95.0110 HW2           1 RES     
    7662 OW          18.8580    31.6920    78.9960 OW            1 RES     
    7663 HW1         18.9140    30.6950    79.0200 HW1           1 RES     
    7664 HW2         17.8980    31.9730    78.9920 HW2           1 RES     
    7665 OW          24.7920    40.1000    93.4600 OW            1 RES     
    7666 HW1         24.1880    40.8920    93.3740 HW1           1 RES     
    7667 HW2         25.4090    40.2340    94.2360 HW2           1 RES     
    7668 OW          34.5970    12.9230    84.8150 OW            1 RES     
    7669 HW1         35.2520    12.2810    85.2120 HW1           1 RES     
    7670 HW2         34.3820    12.6430    83.8790 HW2           1 RES     
    7671 OW          32.7150    25.1120    86.7080 OW            1 RES     
    7672 HW1         32.4010    24.8400    87.6170 HW1           1 RES     
    7673 HW2         32.1660    25.8830    86.3830 HW2           1 RES     
    7674 OW          10.5010    14.8100    87.0820 OW            1 RES     
    7675 HW1         10.7800    13.8790    87.3140 HW1           1 RES     
    7676 HW2          9.5030    14.8740    87.0960 HW2           1 RES     
    7677 OW          38.7340    29.3050    97.8820 OW            1 RES     
    7678 HW1         38.3150    30.2120    97.9090 HW1           1 RES     
    7679 HW2         38.2140    28.7150    97.2640 HW2           1 RES     
    7680 OW          36.3360     8.1460    89.2770 OW            1 RES     
    7681 HW1         35.8970     8.9570    89.6620 HW1           1 RES     
    7682 HW2         37.1350     7.9050    89.8280 HW2           1 RES     
    7683 OW          28.6840    36.1160    78.6930 OW            1 RES     
    7684 HW1         29.1640    36.9570    78.9380 HW1           1 RES     
    7685 HW2         27.7130    36.2080    78.9150 HW2           1 RES     
    7686 OW          19.4750    10.0600    83.0830 OW            1 RES     
    7687 HW1         20.3840    10.2380    83.4560 HW1           1 RES     
    7688 HW2         19.5170     9.2780    82.4600 HW2           1 RES     
    7689 OW          16.0790    24.7100    86.4070 OW            1 RES     
    7690 HW1         16.1720    23.7170    86.4780 HW1           1 RES     
    7691 HW2         16.8960    25.0910    85.9730 HW2           1 RES     
    7692 OW          15.3320    26.6630    81.9000 OW            1 RES     
    7693 HW1         16.2270    26.2250    81.9780 HW1           1 RES     
    7694 HW2         14.6140    25.9700    81.9680 HW2           1 RES     
    7695 OW          30.9280    36.8930    89.7860 OW            1 RES     
    7696 HW1         29.9340    36.8070    89.7230 HW1           1 RES     
    7697 HW2         31.1760    37.8600    89.8490 HW2           1 RES     
    7698 OW          17.5340    21.7710    97.2550 OW            1 RES     
    7699 HW1         17.6100    20.9680    96.6650 HW1           1 RES     
    7700 HW2         17.7200    21.5080    98.2020 HW2           1 RES     
    7701 OW          40.9270    10.7550     4.8340 OW            1 RES     
    7702 HW1         40.3730     9.9540     5.0560 HW1           1 RES     
    7703 HW2         40.3670    11.5810     4.9130 HW2           1 RES     
    7704 OW          10.1280     3.2160    10.4260 OW            1 RES     
    7705 HW1          9.4310     2.5000    10.4480 HW1           1 RES     
    7706 HW2          9.8210     3.9630     9.8360 HW2           1 RES     
    7707 OW           9.7160    17.6780    13.4150 OW            1 RES     
    7708 HW1          9.3920    17.4360    14.3290 HW1           1 RES     
    7709 HW2         10.5230    17.1320    13.1910 HW2           1 RES     
    7710 OW           2.5000     9.0480    19.1740 OW            1 RES     
    7711 HW1          2.5170     8.6240    20.0790 HW1           1 RES     
    7712 HW2          2.5200    10.0430    19.2710 HW2           1 RES     
    7713 OW           8.3110    40.8920    11.0180 OW            1 RES     
    7714 HW1          8.2260    40.9260    12.0130 HW1           1 RES     
    7715 HW2          9.2780    40.9270    10.7640 HW2           1 RES     
    7716 OW          38.3770    19.9790    18.3070 OW            1 RES     
    7717 HW1         37.7880    19.9900    19.1150 HW1           1 RES     
    7718 HW2         38.3610    20.8790    17.8710 HW2           1 RES     
    7719 OW          21.4230    27.2510     3.6650 OW            1 RES     
    7720 HW1         21.7960    26.3240     3.6590 HW1           1 RES     
    7721 HW2         20.4270    27.2110     3.5920 HW2           1 RES     
    7722 OW           8.1680    39.5590    16.9820 OW            1 RES     
    7723 HW1          9.1210    39.5890    16.6810 HW1           1 RES     
    7724 HW2          7.6880    40.3710    16.6520 HW2           1 RES     
    7725 OW           9.8630     7.3560    11.2520 OW            1 RES     
    7726 HW1         10.7000     7.0490    10.8000 HW1           1 RES     
    7727 HW2         10.0330     7.4610    12.2320 HW2           1 RES     
    7728 OW           4.2580    39.0080    12.3270 OW            1 RES     
    7729 HW1          4.2100    40.0060    12.2980 HW1           1 RES     
    7730 HW2          5.1930    38.7130    12.1300 HW2           1 RES     
    7731 OW          18.2350    31.2470    20.2670 OW            1 RES     
    7732 HW1         18.3720    32.2370    20.2930 HW1           1 RES     
    7733 HW2         19.0720    30.8030    19.9480 HW2           1 RES     
    7734 OW           7.1220    30.4680     9.3420 OW            1 RES     
    7735 HW1          7.6370    29.6120     9.3380 HW1           1 RES     
    7736 HW2          6.1770    30.2880     9.6140 HW2           1 RES     
    7737 OW          32.6760    17.0230    12.8960 OW            1 RES     
    7738 HW1         32.1240    17.6610    13.4320 HW1           1 RES     
    7739 HW2         32.5530    17.2130    11.9220 HW2           1 RES     
    7740 OW          15.3520     4.4770    22.6210 OW            1 RES     
    7741 HW1         15.6460     5.3390    22.2080 HW1           1 RES     
    7742 HW2         16.1390     3.8670    22.7160 HW2           1 RES     
    7743 OW          17.1390    24.5640    12.2270 OW            1 RES     
    7744 HW1         17.2710    23.8560    12.9190 HW1           1 RES     
    7745 HW2         16.6380    25.3330    12.6260 HW2           1 RES     
    7746 OW          37.6630    23.1770    17.6210 OW            1 RES     
    7747 HW1         37.9190    24.1380    17.5180 HW1           1 RES     
    7748 HW2         37.8170    22.6960    16.7570 HW2           1 RES     
    7749 OW          32.8870    20.4480     2.5980 OW            1 RES     
    7750 HW1         32.4220    19.5650     2.6510 HW1           1 RES     
    7751 HW2         33.8720    20.3010     2.5010 HW2           1 RES     
    7752 OW           7.2460     7.8310    13.6930 OW            1 RES     
    7753 HW1          6.4920     8.4770    13.5840 HW1           1 RES     
    7754 HW2          7.0230     6.9750    13.2250 HW2           1 RES     
    7755 OW          12.4680    21.4690    22.1730 OW            1 RES     
    7756 HW1         13.4570    21.5710    22.2660 HW1           1 RES     
    7757 HW2         12.1030    22.2260    21.6310 HW2           1 RES     
    7758 OW          21.9790     7.8310     2.9540 OW            1 RES     
    7759 HW1         21.9910     7.4250     3.8670 HW1           1 RES     
    7760 HW2         22.8530     7.6570     2.5000 HW2           1 RES     
    7761 OW          22.0460    40.3560     2.9470 OW            1 RES     
    7762 HW1         21.3570    40.9250     2.5010 HW1           1 RES     
    7763 HW2         22.6170    40.9260     3.5390 HW2           1 RES     
    7764 OW           6.4920    33.0700     7.2090 OW            1 RES     
    7765 HW1          6.5880    32.0790     7.1210 HW1           1 RES     
    7766 HW2          5.5210    33.3110     7.2270 HW2           1 RES     
    7767 OW          35.0690     3.3320    23.4740 OW            1 RES     
    7768 HW1         34.5180     2.5000    23.4300 HW1           1 RES     
    7769 HW2         35.7800     3.2250    24.1700 HW2           1 RES     
    7770 OW          10.0790    16.7410    17.5890 OW            1 RES     
    7771 HW1          9.8940    17.0570    18.5190 HW1           1 RES     
    7772 HW2          9.2150    16.6040    17.1050 HW2           1 RES     
    7773 OW          19.8270    34.1990    18.1330 OW            1 RES     
    7774 HW1         19.2740    33.6540    18.7620 HW1           1 RES     
    7775 HW2         19.4060    34.1930    17.2260 HW2           1 RES     
    7776 OW          40.7310    17.2390     5.9050 OW            1 RES     
    7777 HW1         40.9150    17.7830     5.0870 HW1           1 RES     
    7778 HW2         40.8530    17.8090     6.7190 HW2           1 RES     
    7779 OW          31.9150    35.3420     4.5560 OW            1 RES     
    7780 HW1         31.5230    34.4420     4.3670 HW1           1 RES     
    7781 HW2         31.8540    35.9120     3.7360 HW2           1 RES     
    7782 OW          32.3110     3.3700    18.6180 OW            1 RES     
    7783 HW1         31.3910     3.0390    18.4090 HW1           1 RES     
    7784 HW2         32.8650     2.6160    18.9700 HW2           1 RES     
    7785 OW          33.4010    38.3670    14.0850 OW            1 RES     
    7786 HW1         32.4190    38.3780    13.8980 HW1           1 RES     
    7787 HW2         33.7830    37.4840    13.8100 HW2           1 RES     
    7788 OW          37.0500    31.6220     8.0030 OW            1 RES     
    7789 HW1         36.4580    30.8940     7.6590 HW1           1 RES     
    7790 HW2         37.9260    31.5970     7.5210 HW2           1 RES     
    7791 OW          40.5400    30.5500    12.1930 OW            1 RES     
    7792 HW1         39.5620    30.3660    12.2870 HW1           1 RES     
    7793 HW2         40.9270    29.9470    11.4950 HW2           1 RES     
    7794 OW          29.8320    39.5030    22.6150 OW            1 RES     
    7795 HW1         29.9220    40.4950    22.6930 HW1           1 RES     
    7796 HW2         30.7210    39.1040    22.3860 HW2           1 RES     
    7797 OW          34.8520     8.1000     8.4820 OW            1 RES     
    7798 HW1         35.8190     7.8480     8.4550 HW1           1 RES     
    7799 HW2         34.2930     7.2740     8.5500 HW2           1 RES     
    7800 OW          28.3950    22.2730     6.4610 OW            1 RES     
    7801 HW1         27.5450    21.9940     6.9070 HW1           1 RES     
    7802 HW2         28.8530    21.4690     6.0820 HW2           1 RES     
    7803 OW          24.3210    32.9680    12.2330 OW            1 RES     
    7804 HW1         24.9310    33.2880    12.9580 HW1           1 RES     
    7805 HW2         23.4560    32.6670    12.6330 HW2           1 RES     
    7806 OW          18.7650    11.1480    19.9880 OW            1 RES     
    7807 HW1         17.9940    11.5150    19.4680 HW1           1 RES     
    7808 HW2         18.5450    10.2250    20.3040 HW2           1 RES     
    7809 OW          33.1830    22.5350    23.5070 OW            1 RES     
    7810 HW1         34.1660    22.7090    23.5510 HW1           1 RES     
    7811 HW2         33.0230    21.5600    23.3520 HW2           1 RES     
    7812 OW           4.5390    37.0530     9.2910 OW            1 RES     
    7813 HW1          4.2230    36.9240    10.2300 HW1           1 RES     
    7814 HW2          5.5380    37.0100     9.2650 HW2           1 RES     
    7815 OW          29.2600     7.3490    23.0480 OW            1 RES     
    7816 HW1         28.9950     8.0600    22.3970 HW1           1 RES     
    7817 HW2         30.2540     7.3520    23.1580 HW2           1 RES     
    7818 OW          16.3410    15.6500    15.1100 OW            1 RES     
    7819 HW1         16.7760    16.4790    14.7590 HW1           1 RES     
    7820 HW2         17.0450    15.0000    15.3980 HW2           1 RES     
    7821 OW          15.4460     7.2740    24.0510 OW            1 RES     
    7822 HW1         14.8970     6.4480    24.1700 HW1           1 RES     
    7823 HW2         16.4040     7.0220    23.9160 HW2           1 RES     
    7824 OW          35.0670    32.1400    20.9420 OW            1 RES     
    7825 HW1         35.1050    32.2190    19.9470 HW1           1 RES     
    7826 HW2         35.4770    32.9530    21.3570 HW2           1 RES     
    7827 OW          40.4080     4.4480    17.6900 OW            1 RES     
    7828 HW1         40.9240     5.2970    17.5870 HW1           1 RES     
    7829 HW2         40.9270     3.8080    18.2580 HW2           1 RES     
    7830 OW          30.6800     3.8760    21.1880 OW            1 RES     
    7831 HW1         31.0270     4.2250    20.3180 HW1           1 RES     
    7832 HW2         30.9710     2.9260    21.3060 HW2           1 RES     
    7833 OW           9.7470    31.9770    23.8690 OW            1 RES     
    7834 HW1          9.7940    31.9780    22.8700 HW1           1 RES     
    7835 HW2          9.0700    31.3050    24.1700 HW2           1 RES     
    7836 OW           5.8190    37.5890    18.7560 OW            1 RES     
    7837 HW1          4.8210    37.5340    18.7340 HW1           1 RES     
    7838 HW2          6.0990    38.5470    18.8200 HW2           1 RES     
    7839 OW          35.6670    33.7700     7.7270 OW            1 RES     
    7840 HW1         35.0440    33.0880     7.3470 HW1           1 RES     
    7841 HW2         36.0020    33.4580     8.6160 HW2           1 RES     
    7842 OW          15.4270     7.0070    19.9210 OW            1 RES     
    7843 HW1         16.1150     7.7070    19.7310 HW1           1 RES     
    7844 HW2         14.5130     7.3970    19.8070 HW2           1 RES     
    7845 OW          26.9770    23.9600     8.3900 OW            1 RES     
    7846 HW1         26.8820    23.0260     8.7330 HW1           1 RES     
    7847 HW2         26.4070    24.0750     7.5760 HW2           1 RES     
    7848 OW          27.7000    11.6170    20.2710 OW            1 RES     
    7849 HW1         27.9110    12.5940    20.2880 HW1           1 RES     
    7850 HW2         28.5510    11.0910    20.2550 HW2           1 RES     
    7851 OW           9.5970    34.0150    14.1490 OW            1 RES     
    7852 HW1          8.9050    34.4670    14.7120 HW1           1 RES     
    7853 HW2         10.0230    33.2760    14.6720 HW2           1 RES     
    7854 OW          34.1600    17.2610     7.8150 OW            1 RES     
    7855 HW1         33.1880    17.0290     7.8340 HW1           1 RES     
    7856 HW2         34.4470    17.5740     8.7200 HW2           1 RES     
    7857 OW          40.6550     5.9490     6.1760 OW            1 RES     
    7858 HW1         40.0760     5.2300     5.7950 HW1           1 RES     
    7859 HW2         40.7730     5.7980     7.1580 HW2           1 RES     
    7860 OW          32.9320    18.9970    18.9170 OW            1 RES     
    7861 HW1         33.4340    19.3870    18.1460 HW1           1 RES     
    7862 HW2         31.9500    19.1190    18.7730 HW2           1 RES     
    7863 OW          17.1290    37.8390     3.4570 OW            1 RES     
    7864 HW1         16.2340    37.4000     3.5100 HW1           1 RES     
    7865 HW2         17.4110    37.9090     2.5000 HW2           1 RES     
    7866 OW           4.1840     3.2410    15.6500 OW            1 RES     
    7867 HW1          3.4750     2.5950    15.3710 HW1           1 RES     
    7868 HW2          4.0170     3.5350    16.5910 HW2           1 RES     
    7869 OW          20.1860    13.4540    19.8260 OW            1 RES     
    7870 HW1         20.0990    13.2800    18.8460 HW1           1 RES     
    7871 HW2         20.7190    14.2880    19.9710 HW2           1 RES     
    7872 OW          30.5720    35.3820     8.6100 OW            1 RES     
    7873 HW1         30.4450    36.0010     9.3840 HW1           1 RES     
    7874 HW2         29.9140    34.6310     8.6720 HW2           1 RES     
    7875 OW          25.2130    22.6060    19.1760 OW            1 RES     
    7876 HW1         24.8500    22.2320    20.0290 HW1           1 RES     
    7877 HW2         25.7640    21.9110    18.7150 HW2           1 RES     
    7878 OW           5.9940    39.6300    24.1700 OW            1 RES     
    7879 HW1          5.3460    40.3360    23.8840 HW1           1 RES     
    7880 HW2          6.8890    39.8140    23.7620 HW2           1 RES     
    7881 OW           5.1840    27.5840     9.4550 OW            1 RES     
    7882 HW1          4.4090    28.2150     9.4230 HW1           1 RES     
    7883 HW2          6.0380    28.1020     9.4090 HW2           1 RES     
    7884 OW          28.0410    11.7910     5.1100 OW            1 RES     
    7885 HW1         28.6690    11.0240     5.2390 HW1           1 RES     
    7886 HW2         27.1010    11.4510     5.0780 HW2           1 RES     
    7887 OW          19.1620    17.8030    18.9040 OW            1 RES     
    7888 HW1         19.3180    17.2860    19.7450 HW1           1 RES     
    7889 HW2         18.7540    18.6880    19.1270 HW2           1 RES     
    7890 OW          19.5160    19.4880    16.2640 OW            1 RES     
    7891 HW1         19.2540    19.6790    17.2100 HW1           1 RES     
    7892 HW2         18.9620    18.7340    15.9100 HW2           1 RES     
    7893 OW          12.9210    21.4060    11.9920 OW            1 RES     
    7894 HW1         13.6940    21.7720    11.4750 HW1           1 RES     
    7895 HW2         12.1230    21.3320    11.3930 HW2           1 RES     
    7896 OW          23.0860    35.1000    17.4820 OW            1 RES     
    7897 HW1         22.1250    35.1260    17.2100 HW1           1 RES     
    7898 HW2         23.1700    34.6560    18.3740 HW2           1 RES     
    7899 OW           6.1680    38.8140     6.6060 OW            1 RES     
    7900 HW1          6.9430    38.2100     6.4240 HW1           1 RES     
    7901 HW2          6.5030    39.6940     6.9430 HW2           1 RES     
    7902 OW          29.3080    20.9980    17.6850 OW            1 RES     
    7903 HW1         28.8650    20.7890    18.5560 HW1           1 RES     
    7904 HW2         28.8450    21.7720    17.2530 HW2           1 RES     
    7905 OW          31.4380    31.7810    20.4720 OW            1 RES     
    7906 HW1         31.2720    30.8670    20.1030 HW1           1 RES     
    7907 HW2         31.8320    31.7050    21.3880 HW2           1 RES     
    7908 OW          19.0750    20.0990    14.1890 OW            1 RES     
    7909 HW1         19.9020    20.2660    13.6530 HW1           1 RES     
    7910 HW2         18.2900    20.5130    13.7290 HW2           1 RES     
    7911 OW          36.2550    21.8630     2.8040 OW            1 RES     
    7912 HW1         35.4270    22.3330     2.5020 HW1           1 RES     
    7913 HW2         37.0110    22.5160     2.8530 HW2           1 RES     
    7914 OW          17.5350    38.8730    20.4900 OW            1 RES     
    7915 HW1         17.4650    38.2680    21.2820 HW1           1 RES     
    7916 HW2         17.0660    39.7350    20.6860 HW2           1 RES     
    7917 OW          14.6480     3.7490    15.2050 OW            1 RES     
    7918 HW1         14.1620     3.9370    16.0580 HW1           1 RES     
    7919 HW2         15.3570     3.0630    15.3690 HW2           1 RES     
    7920 OW          24.9580    11.2830    13.0070 OW            1 RES     
    7921 HW1         25.3800    10.4390    13.3350 HW1           1 RES     
    7922 HW2         23.9680    11.1570    12.9380 HW2           1 RES     
    7923 OW          10.1740    28.3710    10.6580 OW            1 RES     
    7924 HW1          9.4110    28.9940    10.4860 HW1           1 RES     
    7925 HW2          9.8910    27.4330    10.4580 HW2           1 RES     
    7926 OW          15.2310    34.4520     5.0330 OW            1 RES     
    7927 HW1         14.4680    34.0760     5.5580 HW1           1 RES     
    7928 HW2         15.9250    34.8070     5.6600 HW2           1 RES     
    7929 OW          35.6790    30.2120    16.9550 OW            1 RES     
    7930 HW1         35.3540    31.1560    17.0110 HW1           1 RES     
    7931 HW2         36.3840    30.0600    17.6470 HW2           1 RES     
    7932 OW          14.9460    12.1450     9.5480 OW            1 RES     
    7933 HW1         15.0690    11.1580     9.6470 HW1           1 RES     
    7934 HW2         15.7660    12.6180     9.8700 HW2           1 RES     
    7935 OW          19.3330    30.8780    24.0770 OW            1 RES     
    7936 HW1         20.3190    31.0070    24.1700 HW1           1 RES     
    7937 HW2         18.8790    31.7690    24.0630 HW2           1 RES     
    7938 OW          32.9370    13.0500    20.6450 OW            1 RES     
    7939 HW1         32.0440    13.4710    20.4900 HW1           1 RES     
    7940 HW2         33.6390    13.7620    20.6830 HW2           1 RES     
    7941 OW          17.1810     5.5600    20.3940 OW            1 RES     
    7942 HW1         17.9650     4.9850    20.6210 HW1           1 RES     
    7943 HW2         16.3970     4.9820    20.1670 HW2           1 RES     
    7944 OW          34.9540    12.3050     7.0450 OW            1 RES     
    7945 HW1         35.1480    12.2080     8.0200 HW1           1 RES     
    7946 HW2         34.9660    11.4040     6.6110 HW2           1 RES     
    7947 OW           4.2890    20.4610     6.0640 OW            1 RES     
    7948 HW1          4.7860    19.6500     5.7580 HW1           1 RES     
    7949 HW2          3.5090    20.6230     5.4580 HW2           1 RES     
    7950 OW          31.5960     8.2720     9.4240 OW            1 RES     
    7951 HW1         30.9050     8.7380     8.8720 HW1           1 RES     
    7952 HW2         32.0360     8.9310    10.0340 HW2           1 RES     
    7953 OW           6.3840    12.7040    16.5390 OW            1 RES     
    7954 HW1          7.3790    12.7720    16.4820 HW1           1 RES     
    7955 HW2          6.1140    11.7410    16.5470 HW2           1 RES     
    7956 OW          36.9360    14.5710    12.2430 OW            1 RES     
    7957 HW1         37.7030    15.0700    11.8400 HW1           1 RES     
    7958 HW2         36.1120    14.7330    11.7000 HW2           1 RES     
    7959 OW          35.7730     9.9730     9.1920 OW            1 RES     
    7960 HW1         35.7480    10.1000     8.2010 HW1           1 RES     
    7961 HW2         34.8440    10.0220     9.5580 HW2           1 RES     
    7962 OW           7.4630     9.9850    24.1700 OW            1 RES     
    7963 HW1          8.2170     9.3430    24.0390 HW1           1 RES     
    7964 HW2          6.6420     9.6320    23.7190 HW2           1 RES     
    7965 OW           8.4610    10.3190    21.6150 OW            1 RES     
    7966 HW1          9.4300    10.1430    21.4410 HW1           1 RES     
    7967 HW2          7.9920     9.4540    21.7940 HW2           1 RES     
    7968 OW          40.0940    26.8530    12.6900 OW            1 RES     
    7969 HW1         40.3380    27.7600    13.0310 HW1           1 RES     
    7970 HW2         40.9270    26.3280    12.5130 HW2           1 RES     
    7971 OW          19.2270    21.2200     7.9880 OW            1 RES     
    7972 HW1         18.6820    20.3850     7.9200 HW1           1 RES     
    7973 HW2         20.1530    21.0420     7.6540 HW2           1 RES     
    7974 OW          36.2380    36.4880    19.1150 OW            1 RES     
    7975 HW1         36.0600    35.5170    18.9610 HW1           1 RES     
    7976 HW2         35.7110    36.8020    19.9060 HW2           1 RES     
    7977 OW           5.8780     5.9000     8.0970 OW            1 RES     
    7978 HW1          6.7640     5.6270     7.7230 HW1           1 RES     
    7979 HW2          5.8780     5.7620     9.0880 HW2           1 RES     
    7980 OW          21.1970    29.7350    21.4150 OW            1 RES     
    7981 HW1         21.0950    29.3190    20.5120 HW1           1 RES     
    7982 HW2         22.1590    29.7110    21.6870 HW2           1 RES     
    7983 OW          36.8690    14.8700    24.1700 OW            1 RES     
    7984 HW1         36.3890    14.0160    23.9720 HW1           1 RES     
    7985 HW2         36.2920    15.6450    23.9110 HW2           1 RES     
    7986 OW           5.4120    33.1020    20.4450 OW            1 RES     
    7987 HW1          4.9620    33.5240    21.2310 HW1           1 RES     
    7988 HW2          6.2740    33.5740    20.2600 HW2           1 RES     
    7989 OW          33.6680     6.8420    14.0230 OW            1 RES     
    7990 HW1         32.9200     7.5040    14.0060 HW1           1 RES     
    7991 HW2         33.7380     6.3940    13.1310 HW2           1 RES     
    7992 OW          23.4400    26.3330    14.6970 OW            1 RES     
    7993 HW1         24.2090    25.7170    14.5280 HW1           1 RES     
    7994 HW2         23.3670    26.5150    15.6780 HW2           1 RES     
    7995 OW          38.6540    29.9300    15.9610 OW            1 RES     
    7996 HW1         37.7300    30.3090    15.9250 HW1           1 RES     
    7997 HW2         39.1220    30.2680    16.7780 HW2           1 RES     
    7998 OW          27.5360    14.1610    14.9840 OW            1 RES     
    7999 HW1         28.1100    14.5010    14.2400 HW1           1 RES     
    8000 HW2         27.3200    13.1970    14.8260 HW2           1 RES     
    8001 OW          18.9590    16.1950     9.9340 OW            1 RES     
    8002 HW1         19.3280    17.0900     9.6850 HW1           1 RES     
    8003 HW2         18.0100    16.1270     9.6260 HW2           1 RES     
    8004 OW          29.6790    10.8080     9.4110 OW            1 RES     
    8005 HW1         29.6150    10.9390    10.4000 HW1           1 RES     
    8006 HW2         30.5470    11.1780     9.0810 HW2           1 RES     
    8007 OW          17.6630    18.0820    10.7420 OW            1 RES     
    8008 HW1         16.6770    18.2420    10.7320 HW1           1 RES     
    8009 HW2         18.1430    18.9590    10.7790 HW2           1 RES     
    8010 OW          29.1230    39.9280     4.6050 OW            1 RES     
    8011 HW1         30.0820    39.6490     4.5840 HW1           1 RES     
    8012 HW2         29.0660    40.9270     4.6090 HW2           1 RES     
    8013 OW          40.2510    38.0480     3.7460 OW            1 RES     
    8014 HW1         40.0640    38.1400     4.7240 HW1           1 RES     
    8015 HW2         39.4410    37.6860     3.2840 HW2           1 RES     
    8016 OW          34.0090    32.1300    11.9280 OW            1 RES     
    8017 HW1         34.7600    31.4730    11.8690 HW1           1 RES     
    8018 HW2         33.1390    31.6390    11.9760 HW2           1 RES     
    8019 OW          35.0680    12.8170    15.0330 OW            1 RES     
    8020 HW1         34.7870    11.8590    15.0690 HW1           1 RES     
    8021 HW2         36.0640    12.8710    14.9640 HW2           1 RES     
    8022 OW          27.7190     6.1390    15.4060 OW            1 RES     
    8023 HW1         28.1080     6.4500    14.5390 HW1           1 RES     
    8024 HW2         28.2090     5.3260    15.7200 HW2           1 RES     
    8025 OW           5.7810    26.0570     3.7670 OW            1 RES     
    8026 HW1          5.2300    25.3350     3.3500 HW1           1 RES     
    8027 HW2          5.2620    26.9130     3.7690 HW2           1 RES     
    8028 OW          11.2390    24.4730     9.9220 OW            1 RES     
    8029 HW1         12.1160    24.0780    10.1930 HW1           1 RES     
    8030 HW2         11.3790    25.4120     9.6080 HW2           1 RES     
    8031 OW          12.2540     7.9490    22.6250 OW            1 RES     
    8032 HW1         12.9960     8.5430    22.9340 HW1           1 RES     
    8033 HW2         12.6090     7.0270    22.4670 HW2           1 RES     
    8034 OW          10.1060    35.1310    22.1490 OW            1 RES     
    8035 HW1          9.7750    34.5400    21.4140 HW1           1 RES     
    8036 HW2         10.5680    35.9260    21.7570 HW2           1 RES     
    8037 OW           5.1310    15.0060    19.7420 OW            1 RES     
    8038 HW1          5.9030    15.5960    19.5090 HW1           1 RES     
    8039 HW2          5.3860    14.4100    20.5040 HW2           1 RES     
    8040 OW          12.8710    35.8290    22.0880 OW            1 RES     
    8041 HW1         13.5480    35.0930    22.0890 HW1           1 RES     
    8042 HW2         13.3380    36.7130    22.0890 HW2           1 RES     
    8043 OW          22.8720    25.4820     9.2120 OW            1 RES     
    8044 HW1         22.9430    25.4220    10.2070 HW1           1 RES     
    8045 HW2         23.1620    26.3910     8.9110 HW2           1 RES     
    8046 OW          17.1400    30.5140    15.6280 OW            1 RES     
    8047 HW1         16.1720    30.7600    15.6240 HW1           1 RES     
    8048 HW2         17.2310    29.5180    15.6260 HW2           1 RES     
    8049 OW          35.2330    20.7100    17.8640 OW            1 RES     
    8050 HW1         36.1580    21.0810    17.9400 HW1           1 RES     
    8051 HW2         34.5950    21.2980    18.3620 HW2           1 RES     
    8052 OW          21.6400    21.1210    18.5590 OW            1 RES     
    8053 HW1         20.6890    20.8900    18.3580 HW1           1 RES     
    8054 HW2         21.6990    22.0790    18.8420 HW2           1 RES     
    8055 OW          21.2120    34.6250     5.3520 OW            1 RES     
    8056 HW1         21.3540    35.3450     6.0310 HW1           1 RES     
    8057 HW2         21.6700    33.7880     5.6530 HW2           1 RES     
    8058 OW           8.1480    15.0690    18.7820 OW            1 RES     
    8059 HW1          7.9420    16.0460    18.8110 HW1           1 RES     
    8060 HW2          9.1390    14.9370    18.7620 HW2           1 RES     
    8061 OW           3.1820    22.9320    11.6120 OW            1 RES     
    8062 HW1          2.5620    22.9250    12.3960 HW1           1 RES     
    8063 HW2          2.7590    23.4340    10.8570 HW2           1 RES     
    8064 OW          30.2700    29.1980     8.1520 OW            1 RES     
    8065 HW1         29.2780    29.2830     8.2370 HW1           1 RES     
    8066 HW2         30.6780    30.1090     8.0900 HW2           1 RES     
    8067 OW          24.5820     9.9460    23.0920 OW            1 RES     
    8068 HW1         24.4120    10.9260    22.9980 HW1           1 RES     
    8069 HW2         25.5150     9.7990    23.4220 HW2           1 RES     
    8070 OW          35.0530    23.3430     4.4200 OW            1 RES     
    8071 HW1         34.8460    23.6930     5.3330 HW1           1 RES     
    8072 HW2         35.7550    23.9150     3.9950 HW2           1 RES     
    8073 OW          10.9350    39.1850    12.6190 OW            1 RES     
    8074 HW1         10.0360    38.9380    12.9780 HW1           1 RES     
    8075 HW2         10.9480    40.1590    12.3920 HW2           1 RES     
    8076 OW          36.3270    28.6470     5.2860 OW            1 RES     
    8077 HW1         35.8930    29.3020     4.6690 HW1           1 RES     
    8078 HW2         37.2960    28.8740     5.3860 HW2           1 RES     
    8079 OW          29.4950    37.6020     5.1360 OW            1 RES     
    8080 HW1         28.5260    37.4490     4.9460 HW1           1 RES     
    8081 HW2         29.5930    38.0580     6.0210 HW2           1 RES     
    8082 OW           7.5900    32.6830     2.5950 OW            1 RES     
    8083 HW1          7.2220    31.7660     2.7430 HW1           1 RES     
    8084 HW2          6.8360    33.3340     2.5010 HW2           1 RES     
    8085 OW          19.8350     6.9920     3.9320 OW            1 RES     
    8086 HW1         18.8490     6.9970     4.0960 HW1           1 RES     
    8087 HW2         20.1970     6.0760     4.1040 HW2           1 RES     
    8088 OW          29.3550    31.9810     7.6450 OW            1 RES     
    8089 HW1         29.0420    32.9280     7.5850 HW1           1 RES     
    8090 HW2         28.6460    31.3730     7.2870 HW2           1 RES     
    8091 OW          27.5610     5.5840    11.9550 OW            1 RES     
    8092 HW1         26.8350     4.9250    12.1500 HW1           1 RES     
    8093 HW2         27.3880     6.4300    12.4610 HW2           1 RES     
    8094 OW          28.3960    21.4630    13.3440 OW            1 RES     
    8095 HW1         27.7810    21.0050    12.7030 HW1           1 RES     
    8096 HW2         28.1950    22.4420    13.3580 HW2           1 RES     
    8097 OW          29.9140    28.0150    12.0140 OW            1 RES     
    8098 HW1         28.9720    28.2990    11.8410 HW1           1 RES     
    8099 HW2         29.9400    27.0290    12.1830 HW2           1 RES     
    8100 OW          14.5680    15.3650    12.7500 OW            1 RES     
    8101 HW1         13.8930    15.0950    13.4350 HW1           1 RES     
    8102 HW2         14.6250    16.3630    12.7120 HW2           1 RES     
    8103 OW          30.7630    35.4620    16.3810 OW            1 RES     
    8104 HW1         30.8270    36.1140    17.1360 HW1           1 RES     
    8105 HW2         30.9980    34.5470    16.7090 HW2           1 RES     
    8106 OW          36.2570    32.2130     3.5470 OW            1 RES     
    8107 HW1         37.0410    32.7070     3.9220 HW1           1 RES     
    8108 HW2         35.4970    32.8490     3.4110 HW2           1 RES     
    8109 OW          17.5460    31.9750    17.3320 OW            1 RES     
    8110 HW1         18.3360    31.8460    17.9310 HW1           1 RES     
    8111 HW2         17.7880    32.6010    16.5900 HW2           1 RES     
    8112 OW          40.7060     8.0950    18.8980 OW            1 RES     
    8113 HW1         40.4520     8.6550    18.1110 HW1           1 RES     
    8114 HW2         40.9270     8.6870    19.6730 HW2           1 RES     
    8115 OW          16.5290    12.5020    12.9020 OW            1 RES     
    8116 HW1         16.6920    12.3820    11.9230 HW1           1 RES     
    8117 HW2         16.0950    11.6800    13.2710 HW2           1 RES     
    8118 OW          11.1620    14.4510    14.7500 OW            1 RES     
    8119 HW1         10.6580    15.2730    14.4860 HW1           1 RES     
    8120 HW2         12.1440    14.6270    14.6860 HW2           1 RES     
    8121 OW          10.2230    24.0600    15.0920 OW            1 RES     
    8122 HW1         10.0560    23.4570    14.3130 HW1           1 RES     
    8123 HW2          9.3600    24.2480    15.5610 HW2           1 RES     
    8124 OW          18.8830    21.8050     5.5380 OW            1 RES     
    8125 HW1         19.2760    20.8930     5.6420 HW1           1 RES     
    8126 HW2         19.5010    22.4830     5.9370 HW2           1 RES     
    8127 OW          27.3690    30.7210     9.6000 OW            1 RES     
    8128 HW1         28.0510    31.4270     9.4100 HW1           1 RES     
    8129 HW2         27.8300    29.8550     9.7920 HW2           1 RES     
    8130 OW           7.2390    12.2280     7.8790 OW            1 RES     
    8131 HW1          8.0780    12.2890     7.3390 HW1           1 RES     
    8132 HW2          7.2610    11.3980     8.4370 HW2           1 RES     
    8133 OW           5.8880    15.1260    14.7780 OW            1 RES     
    8134 HW1          5.1440    15.5690    15.2780 HW1           1 RES     
    8135 HW2          6.4890    14.6530    15.4230 HW2           1 RES     
    8136 OW          11.0640    20.9670     7.6180 OW            1 RES     
    8137 HW1         10.2920    20.3620     7.4240 HW1           1 RES     
    8138 HW2         10.7370    21.9090     7.7010 HW2           1 RES     
    8139 OW          25.2560    38.1220     9.2510 OW            1 RES     
    8140 HW1         25.4030    37.4620     8.5150 HW1           1 RES     
    8141 HW2         24.3550    38.5440     9.1460 HW2           1 RES     
    8142 OW           3.0770    22.7770     3.4900 OW            1 RES     
    8143 HW1          4.0390    22.5060     3.4730 HW1           1 RES     
    8144 HW2          2.5000    21.9670     3.3840 HW2           1 RES     
    8145 OW          14.3590    27.9830    12.8670 OW            1 RES     
    8146 HW1         13.5240    28.3040    13.3110 HW1           1 RES     
    8147 HW2         14.1230    27.4700    12.0410 HW2           1 RES     
    8148 OW           2.6510    36.1940    13.7570 OW            1 RES     
    8149 HW1          3.0110    36.7150    14.5300 HW1           1 RES     
    8150 HW2          3.3850    36.0180    13.1010 HW2           1 RES     
    8151 OW          24.9840    16.5000    24.1440 OW            1 RES     
    8152 HW1         25.9470    16.7640    24.0900 HW1           1 RES     
    8153 HW2         24.7800    15.8320    23.4280 HW2           1 RES     
    8154 OW          35.0900    28.7800     8.2260 OW            1 RES     
    8155 HW1         34.1660    29.0540     8.4900 HW1           1 RES     
    8156 HW2         35.0920    28.4980     7.2660 HW2           1 RES     
    8157 OW          13.2380    18.8930    23.2050 OW            1 RES     
    8158 HW1         12.7350    19.7000    23.5140 HW1           1 RES     
    8159 HW2         14.2050    19.1240    23.0950 HW2           1 RES     
    8160 OW          23.0620    21.3830    15.0450 OW            1 RES     
    8161 HW1         22.3910    20.6440    14.9990 HW1           1 RES     
    8162 HW2         23.9690    20.9990    15.2240 HW2           1 RES     
    8163 OW          19.0760    39.2730    24.1350 OW            1 RES     
    8164 HW1         19.8220    38.6070    24.1180 HW1           1 RES     
    8165 HW2         18.2000    38.7920    24.1690 HW2           1 RES     
    8166 OW          21.1630    31.8840     2.5380 OW            1 RES     
    8167 HW1         22.0510    31.9290     2.9930 HW1           1 RES     
    8168 HW2         20.7600    32.7990     2.5000 HW2           1 RES     
    8169 OW          26.6900    32.6680     7.0180 OW            1 RES     
    8170 HW1         26.9780    33.3400     6.3360 HW1           1 RES     
    8171 HW2         25.8350    32.2410     6.7250 HW2           1 RES     
    8172 OW           8.5860     7.5200    20.3550 OW            1 RES     
    8173 HW1          8.7660     6.6070    20.7210 HW1           1 RES     
    8174 HW2          9.4120     8.0780    20.4280 HW2           1 RES     
    8175 OW          28.1470    25.4380     4.7150 OW            1 RES     
    8176 HW1         27.3780    25.9000     4.2750 HW1           1 RES     
    8177 HW2         27.8090    24.6700     5.2590 HW2           1 RES     
    8178 OW          27.2000    10.6550     9.4350 OW            1 RES     
    8179 HW1         26.2820    11.0470     9.4830 HW1           1 RES     
    8180 HW2         27.1360     9.6570     9.4300 HW2           1 RES     
    8181 OW          16.5410    33.5260    11.9780 OW            1 RES     
    8182 HW1         16.8600    32.9810    11.2040 HW1           1 RES     
    8183 HW2         16.6400    32.9970    12.8220 HW2           1 RES     
    8184 OW          14.8320    17.5110    14.7940 OW            1 RES     
    8185 HW1         15.4460    18.2290    14.4680 HW1           1 RES     
    8186 HW2         14.9540    17.3890    15.7790 HW2           1 RES     
    8187 OW          22.5210    15.6810    21.5700 OW            1 RES     
    8188 HW1         21.5450    15.6920    21.7850 HW1           1 RES     
    8189 HW2         22.6680    16.0820    20.6650 HW2           1 RES     
    8190 OW          17.2070    35.6940    10.4140 OW            1 RES     
    8191 HW1         17.6090    34.8590    10.0380 HW1           1 RES     
    8192 HW2         17.9220    36.3830    10.5360 HW2           1 RES     
    8193 OW          38.3370    22.5900     6.3980 OW            1 RES     
    8194 HW1         38.5380    23.2750     7.0980 HW1           1 RES     
    8195 HW2         37.3500    22.5510     6.2430 HW2           1 RES     
    8196 OW           9.0030    20.8050    12.3060 OW            1 RES     
    8197 HW1          9.8910    21.1320    11.9860 HW1           1 RES     
    8198 HW2          9.1300    19.9830    12.8620 HW2           1 RES     
    8199 OW          40.6080    24.8560    21.0960 OW            1 RES     
    8200 HW1         39.6880    24.7840    20.7110 HW1           1 RES     
    8201 HW2         40.5500    24.8950    22.0940 HW2           1 RES     
    8202 OW          18.6820     5.6890    18.4730 OW            1 RES     
    8203 HW1         19.3230     6.3580    18.0980 HW1           1 RES     
    8204 HW2         18.0600     5.3820    17.7520 HW2           1 RES     
    8205 OW          32.0510    36.4120     6.4810 OW            1 RES     
    8206 HW1         32.1700    36.3870     7.4730 HW1           1 RES     
    8207 HW2         31.0760    36.4500     6.2620 HW2           1 RES     
    8208 OW          18.8380    34.2380     8.0490 OW            1 RES     
    8209 HW1         17.8480    34.2960     7.9250 HW1           1 RES     
    8210 HW2         19.0860    33.3080     8.3200 HW2           1 RES     
    8211 OW          18.2300     3.2710    22.1310 OW            1 RES     
    8212 HW1         18.3290     4.0840    22.7040 HW1           1 RES     
    8213 HW2         19.1090     3.0550    21.7050 HW2           1 RES     
    8214 OW           7.1270    23.3300    20.6400 OW            1 RES     
    8215 HW1          7.9680    22.7900    20.6520 HW1           1 RES     
    8216 HW2          6.3370    22.7160    20.6160 HW2           1 RES     
    8217 OW          13.7160     4.5730    12.2480 OW            1 RES     
    8218 HW1         14.1610     3.7360    12.5630 HW1           1 RES     
    8219 HW2         14.3850     5.1530    11.7830 HW2           1 RES     
    8220 OW           7.0480    17.6750     6.3630 OW            1 RES     
    8221 HW1          6.4880    18.4870     6.5260 HW1           1 RES     
    8222 HW2          7.0870    17.1240     7.1970 HW2           1 RES     
    8223 OW          15.5170    30.8320    11.3570 OW            1 RES     
    8224 HW1         16.0180    29.9670    11.3630 HW1           1 RES     
    8225 HW2         15.4830    31.2040    12.2850 HW2           1 RES     
    8226 OW          25.7630    27.1260    15.2060 OW            1 RES     
    8227 HW1         26.4950    27.7610    14.9580 HW1           1 RES     
    8228 HW2         26.1550    26.2300    15.4160 HW2           1 RES     
    8229 OW          27.4300    20.5550    20.3760 OW            1 RES     
    8230 HW1         26.4330    20.5020    20.3320 HW1           1 RES     
    8231 HW2         27.7200    20.5970    21.3330 HW2           1 RES     
    8232 OW          11.5390    18.8850    10.5490 OW            1 RES     
    8233 HW1         12.4750    19.2180    10.6570 HW1           1 RES     
    8234 HW2         10.8970    19.6300    10.7320 HW2           1 RES     
    8235 OW          40.8110     3.5040    11.7020 OW            1 RES     
    8236 HW1         40.4300     3.8470    12.5590 HW1           1 RES     
    8237 HW2         40.5120     4.0870    10.9460 HW2           1 RES     
    8238 OW          35.3220     9.8300    19.0450 OW            1 RES     
    8239 HW1         36.1620    10.0050    18.5320 HW1           1 RES     
    8240 HW2         34.6750     9.3330    18.4660 HW2           1 RES     
    8241 OW          37.3650    17.0790    21.4130 OW            1 RES     
    8242 HW1         37.6230    16.1180    21.5040 HW1           1 RES     
    8243 HW2         38.1430    17.6590    21.6530 HW2           1 RES     
    8244 OW           3.3530    39.4050    23.8510 OW            1 RES     
    8245 HW1          3.1490    40.3310    24.1700 HW1           1 RES     
    8246 HW2          2.5010    38.8870    23.7660 HW2           1 RES     
    8247 OW          11.9130    16.9860    20.0880 OW            1 RES     
    8248 HW1         12.2810    16.0690    20.2320 HW1           1 RES     
    8249 HW2         12.1760    17.3130    19.1810 HW2           1 RES     
    8250 OW          29.2200    29.3430     4.8270 OW            1 RES     
    8251 HW1         29.4360    29.9400     5.5980 HW1           1 RES     
    8252 HW2         28.2540    29.0860     4.8640 HW2           1 RES     
    8253 OW          13.3660    21.6970     4.6410 OW            1 RES     
    8254 HW1         13.6830    20.7970     4.9390 HW1           1 RES     
    8255 HW2         14.1530    22.2980     4.4990 HW2           1 RES     
    8256 OW          24.2630     8.6970    11.7000 OW            1 RES     
    8257 HW1         23.8030     9.3510    11.0990 HW1           1 RES     
    8258 HW2         23.9960     8.8710    12.6480 HW2           1 RES     
    8259 OW          34.0640     6.8970     2.5170 OW            1 RES     
    8260 HW1         33.6170     7.7910     2.5000 HW1           1 RES     
    8261 HW2         35.0560     7.0200     2.5530 HW2           1 RES     
    8262 OW          11.7740    27.3880    16.3110 OW            1 RES     
    8263 HW1         12.2830    27.8930    15.6140 HW1           1 RES     
    8264 HW2         12.0470    27.7040    17.2190 HW2           1 RES     
    8265 OW          30.5760    17.7250     9.6390 OW            1 RES     
    8266 HW1         29.8460    17.2090    10.0870 HW1           1 RES     
    8267 HW2         31.4580    17.4630    10.0300 HW2           1 RES     
    8268 OW          25.7800    27.4270    23.1770 OW            1 RES     
    8269 HW1         24.8030    27.6120    23.2790 HW1           1 RES     
    8270 HW2         25.9450    26.4450    23.2670 HW2           1 RES     
    8271 OW          40.9260    16.0940     3.3240 OW            1 RES     
    8272 HW1         40.9270    15.6380     4.2140 HW1           1 RES     
    8273 HW2         40.9270    15.4070     2.5970 HW2           1 RES     
    8274 OW          22.0340    21.1960     4.1590 OW            1 RES     
    8275 HW1         21.2790    20.7890     4.6710 HW1           1 RES     
    8276 HW2         22.5340    21.8310     4.7480 HW2           1 RES     
    8277 OW           8.3180    24.8510    21.6920 OW            1 RES     
    8278 HW1          8.1180    25.5390    22.3890 HW1           1 RES     
    8279 HW2          9.2640    24.9520    21.3850 HW2           1 RES     
    8280 OW          13.6140    36.3110    14.0420 OW            1 RES     
    8281 HW1         12.8020    36.8930    14.0380 HW1           1 RES     
    8282 HW2         14.4350    36.8830    14.0420 HW2           1 RES     
    8283 OW          33.3440    17.7160     5.2340 OW            1 RES     
    8284 HW1         32.6220    18.0080     4.6070 HW1           1 RES     
    8285 HW2         33.2400    16.7410     5.4320 HW2           1 RES     
    8286 OW          23.8890    12.9530     8.1140 OW            1 RES     
    8287 HW1         24.8470    12.9120     8.3970 HW1           1 RES     
    8288 HW2         23.4850    12.0390     8.1720 HW2           1 RES     
    8289 OW          20.7840    26.7940     7.4160 OW            1 RES     
    8290 HW1         21.5920    26.2080     7.3540 HW1           1 RES     
    8291 HW2         21.0560    27.7500     7.3000 HW2           1 RES     
    8292 OW           3.0890    21.0350    17.1280 OW            1 RES     
    8293 HW1          3.4080    21.8910    17.5350 HW1           1 RES     
    8294 HW2          3.7040    20.2910    17.3910 HW2           1 RES     
    8295 OW          24.0770    36.3000    13.0080 OW            1 RES     
    8296 HW1         23.5160    35.5520    13.3610 HW1           1 RES     
    8297 HW2         25.0340    36.0120    12.9730 HW2           1 RES     
    8298 OW          34.9000    17.2590    13.1530 OW            1 RES     
    8299 HW1         34.7750    17.3980    12.1710 HW1           1 RES     
    8300 HW2         35.4910    16.4680    13.3070 HW2           1 RES     
    8301 OW          26.9690     8.2010    19.8220 OW            1 RES     
    8302 HW1         26.2880     7.9020    19.1550 HW1           1 RES     
    8303 HW2         26.6140     8.9830    20.3340 HW2           1 RES     
    8304 OW           3.2410    39.9440     9.7350 OW            1 RES     
    8305 HW1          3.3220    39.1530    10.3420 HW1           1 RES     
    8306 HW2          2.5000    40.5350    10.0540 HW2           1 RES     
    8307 OW          29.7550    22.9530    21.9160 OW            1 RES     
    8308 HW1         30.7500    22.9910    21.8290 HW1           1 RES     
    8309 HW2         29.3930    23.8810    22.0150 HW2           1 RES     
    8310 OW          24.6290     2.5020    16.0740 OW            1 RES     
    8311 HW1         23.6330     2.5850    16.0710 HW1           1 RES     
    8312 HW2         24.9790     2.6410    15.1470 HW2           1 RES     
    8313 OW          22.8720    12.9540    19.6880 OW            1 RES     
    8314 HW1         23.8280    12.6730    19.6140 HW1           1 RES     
    8315 HW2         22.5050    13.1310    18.7750 HW2           1 RES     
    8316 OW          19.4540    13.7380    24.1170 OW            1 RES     
    8317 HW1         20.4170    13.4730    24.1690 HW1           1 RES     
    8318 HW2         19.3820    14.7350    24.1210 HW2           1 RES     
    8319 OW          18.3130    37.2990    12.6240 OW            1 RES     
    8320 HW1         19.2860    37.5010    12.5160 HW1           1 RES     
    8321 HW2         17.7890    38.1510    12.5810 HW2           1 RES     
    8322 OW           8.6350     3.7360    12.7780 OW            1 RES     
    8323 HW1          9.4380     3.1900    12.5390 HW1           1 RES     
    8324 HW2          7.8080     3.1880    12.6480 HW2           1 RES     
    8325 OW          18.2260    34.3100    15.1040 OW            1 RES     
    8326 HW1         17.5480    33.6990    14.6990 HW1           1 RES     
    8327 HW2         19.1290    33.8800    15.0660 HW2           1 RES     
    8328 OW          34.9440    26.7840    14.8170 OW            1 RES     
    8329 HW1         34.5760    25.9340    15.1930 HW1           1 RES     
    8330 HW2         34.6560    27.5530    15.3870 HW2           1 RES     
    8331 OW          13.2460    31.7220    13.8690 OW            1 RES     
    8332 HW1         12.7030    32.5380    14.0640 HW1           1 RES     
    8333 HW2         13.0520    31.4070    12.9400 HW2           1 RES     
    8334 OW          36.8840    32.8380    10.7520 OW            1 RES     
    8335 HW1         37.5810    33.5450    10.6320 HW1           1 RES     
    8336 HW2         36.0000    33.2680    10.9350 HW2           1 RES     
    8337 OW           4.9790     3.4070     7.9140 OW            1 RES     
    8338 HW1          4.4320     4.2210     7.7230 HW1           1 RES     
    8339 HW2          5.8780     3.6810     8.2570 HW2           1 RES     
    8340 OW           7.0440    36.3780    17.0510 OW            1 RES     
    8341 HW1          7.4010    35.7280    16.3800 HW1           1 RES     
    8342 HW2          7.6080    37.2040    17.0500 HW2           1 RES     
    8343 OW          20.6630    39.1640    19.6280 OW            1 RES     
    8344 HW1         21.4190    38.5160    19.7200 HW1           1 RES     
    8345 HW2         19.8420    38.7820    20.0540 HW2           1 RES     
    8346 OW          12.5420    29.7200    18.4170 OW            1 RES     
    8347 HW1         12.4540    30.7150    18.3930 HW1           1 RES     
    8348 HW2         13.4800    29.4620    18.1850 HW2           1 RES     
    8349 OW          25.7820    37.8050     3.4690 OW            1 RES     
    8350 HW1         26.6010    38.3510     3.6440 HW1           1 RES     
    8351 HW2         25.9620    37.1630     2.7240 HW2           1 RES     
    8352 OW          13.1530    27.7860     7.5330 OW            1 RES     
    8353 HW1         13.1400    26.9560     8.0900 HW1           1 RES     
    8354 HW2         14.0240    28.2610     7.6620 HW2           1 RES     
    8355 OW          23.6190    28.1770    12.2840 OW            1 RES     
    8356 HW1         23.7240    27.2930    12.7380 HW1           1 RES     
    8357 HW2         24.4810    28.4320    11.8450 HW2           1 RES     
    8358 OW           9.9540    28.6450    19.8970 OW            1 RES     
    8359 HW1         10.6840    29.1680    19.4580 HW1           1 RES     
    8360 HW2          9.0680    28.9440    19.5420 HW2           1 RES     
    8361 OW          23.6380    10.0110     2.9530 OW            1 RES     
    8362 HW1         24.2460     9.3590     2.5000 HW1           1 RES     
    8363 HW2         24.1790    10.6360     3.5160 HW2           1 RES     
    8364 OW          29.7330    22.8570     4.6000 OW            1 RES     
    8365 HW1         30.4740    22.7040     5.2530 HW1           1 RES     
    8366 HW2         30.0970    23.2930     3.7770 HW2           1 RES     
    8367 OW          30.9410    25.2980     7.2870 OW            1 RES     
    8368 HW1         29.9850    25.4020     7.5600 HW1           1 RES     
    8369 HW2         31.1800    24.3270     7.2690 HW2           1 RES     
    8370 OW          29.4240    15.4880     8.6750 OW            1 RES     
    8371 HW1         28.8890    16.2650     8.3450 HW1           1 RES     
    8372 HW2         30.3990    15.6900     8.5810 HW2           1 RES     
    8373 OW          13.2590    12.1060    20.5330 OW            1 RES     
    8374 HW1         13.8680    11.7070    21.2180 HW1           1 RES     
    8375 HW2         12.3460    11.7090    20.6250 HW2           1 RES     
    8376 OW          13.2330    37.3770    11.2870 OW            1 RES     
    8377 HW1         12.5630    38.1020    11.1320 HW1           1 RES     
    8378 HW2         12.8230    36.6600    11.8510 HW2           1 RES     
    8379 OW          17.2080    40.0190    11.5750 OW            1 RES     
    8380 HW1         17.6120    40.9270    11.4690 HW1           1 RES     
    8381 HW2         16.4450    39.9160    10.9370 HW2           1 RES     
    8382 OW          21.1070     6.0020     8.1360 OW            1 RES     
    8383 HW1         21.8600     6.5990     8.4110 HW1           1 RES     
    8384 HW2         20.9090     6.1400     7.1650 HW2           1 RES     
    8385 OW          28.5160    12.8230    17.5500 OW            1 RES     
    8386 HW1         27.6920    12.3800    17.1990 HW1           1 RES     
    8387 HW2         28.5700    13.7570    17.1960 HW2           1 RES     
    8388 OW          20.1700    32.3170    10.4460 OW            1 RES     
    8389 HW1         20.2170    31.4840     9.8950 HW1           1 RES     
    8390 HW2         19.2130    32.5660    10.5930 HW2           1 RES     
    8391 OW          13.2710     6.6580    14.4420 OW            1 RES     
    8392 HW1         13.4300     6.7150    13.4570 HW1           1 RES     
    8393 HW2         14.0800     6.2770    14.8900 HW2           1 RES     
    8394 OW          23.1920    19.0890    23.7020 OW            1 RES     
    8395 HW1         24.0010    18.7350    24.1700 HW1           1 RES     
    8396 HW2         23.0830    20.0610    23.9130 HW2           1 RES     
    8397 OW          25.7810    30.9490    11.2980 OW            1 RES     
    8398 HW1         26.4800    31.6290    11.5160 HW1           1 RES     
    8399 HW2         26.1820    30.0330    11.3380 HW2           1 RES     
    8400 OW           2.5000    33.7120    22.0850 OW            1 RES     
    8401 HW1          3.3120    33.7780    22.6640 HW1           1 RES     
    8402 HW2          2.6580    33.0360    21.3650 HW2           1 RES     
    8403 OW          31.9700    14.6440     7.0430 OW            1 RES     
    8404 HW1         32.3000    14.7600     7.9800 HW1           1 RES     
    8405 HW2         32.7120    14.8380     6.4010 HW2           1 RES     
    8406 OW          20.4760    26.8160    10.2760 OW            1 RES     
    8407 HW1         20.1800    27.2630    11.1200 HW1           1 RES     
    8408 HW2         21.4260    27.0620    10.0840 HW2           1 RES     
    8409 OW          28.6000    38.3640    12.5970 OW            1 RES     
    8410 HW1         28.5380    37.9400    11.6950 HW1           1 RES     
    8411 HW2         29.3860    37.9880    13.0890 HW2           1 RES     
    8412 OW           8.6420     3.1370    23.7600 OW            1 RES     
    8413 HW1          8.0000     2.5000    23.3340 HW1           1 RES     
    8414 HW2          9.5210     2.6820    23.8980 HW2           1 RES     
    8415 OW          38.2990     5.5500    14.8800 OW            1 RES     
    8416 HW1         37.7730     4.7290    14.6630 HW1           1 RES     
    8417 HW2         37.7430     6.3610    14.6970 HW2           1 RES     
    8418 OW          33.1990     5.7750    10.8980 OW            1 RES     
    8419 HW1         32.9030     6.4800    10.2550 HW1           1 RES     
    8420 HW2         33.0610     4.8720    10.4900 HW2           1 RES     
    8421 OW          27.2970    32.8620    22.2510 OW            1 RES     
    8422 HW1         26.4180    32.9560    22.7180 HW1           1 RES     
    8423 HW2         27.1430    32.5710    21.3060 HW2           1 RES     
    8424 OW          32.5020    18.2390    16.4280 OW            1 RES     
    8425 HW1         33.2850    18.5310    15.8810 HW1           1 RES     
    8426 HW2         32.0440    17.4740    15.9740 HW2           1 RES     
    8427 OW           5.5410    20.7370    16.2650 OW            1 RES     
    8428 HW1          6.0090    20.9480    17.1230 HW1           1 RES     
    8429 HW2          4.9980    21.5270    15.9780 HW2           1 RES     
    8430 OW          29.9330    30.5810    11.2260 OW            1 RES     
    8431 HW1         30.8450    30.3770    11.5780 HW1           1 RES     
    8432 HW2         29.9300    30.4890    10.2300 HW2           1 RES     
    8433 OW          37.9690    29.2790     7.4410 OW            1 RES     
    8434 HW1         37.2800    28.8920     8.0530 HW1           1 RES     
    8435 HW2         38.7850    28.7000     7.4480 HW2           1 RES     
    8436 OW           6.9420    13.7780    10.0240 OW            1 RES     
    8437 HW1          7.4520    13.0560    10.4910 HW1           1 RES     
    8438 HW2          6.0440    13.4320     9.7550 HW2           1 RES     
    8439 OW          35.2290     3.6820    20.8220 OW            1 RES     
    8440 HW1         34.5590     3.1910    20.2660 HW1           1 RES     
    8441 HW2         35.4800     4.5350    20.3660 HW2           1 RES     
    8442 OW          14.0280    31.3370     2.5710 OW            1 RES     
    8443 HW1         13.2660    31.9800     2.5000 HW1           1 RES     
    8444 HW2         13.9830    30.8610     3.4490 HW2           1 RES     
    8445 OW          36.0340    38.8360    21.3550 OW            1 RES     
    8446 HW1         35.3990    39.2110    22.0280 HW1           1 RES     
    8447 HW2         36.3260    39.5610    20.7310 HW2           1 RES     
    8448 OW          13.8390     8.9390    14.9330 OW            1 RES     
    8449 HW1         14.5960     8.6770    14.3360 HW1           1 RES     
    8450 HW2         13.1040     9.3390    14.3840 HW2           1 RES     
    8451 OW          24.9540    20.6810    22.3360 OW            1 RES     
    8452 HW1         25.7710    20.5120    22.8860 HW1           1 RES     
    8453 HW2         24.5890    19.8110    22.0040 HW2           1 RES     
    8454 OW          35.2650     3.1280    16.2640 OW            1 RES     
    8455 HW1         34.7550     2.6270    15.5660 HW1           1 RES     
    8456 HW2         35.0380     4.1010    16.2100 HW2           1 RES     
    8457 OW          17.2750    25.4480    23.4480 OW            1 RES     
    8458 HW1         17.2100    26.1240    22.7160 HW1           1 RES     
    8459 HW2         17.8780    25.7920    24.1680 HW2           1 RES     
    8460 OW          37.0800     5.0560    22.9490 OW            1 RES     
    8461 HW1         37.4120     4.1680    22.6340 HW1           1 RES     
    8462 HW2         36.1020     5.1360    22.7530 HW2           1 RES     
    8463 OW          12.2080     9.2400    20.8190 OW            1 RES     
    8464 HW1         11.5960     9.7610    21.4140 HW1           1 RES     
    8465 HW2         11.6820     8.5500    20.3210 HW2           1 RES     
    8466 OW          29.8070    18.8720    18.0270 OW            1 RES     
    8467 HW1         29.2660    18.2050    18.5390 HW1           1 RES     
    8468 HW2         30.0570    18.4870    17.1390 HW2           1 RES     
    8469 OW           6.7760    20.9910    10.7870 OW            1 RES     
    8470 HW1          5.8900    20.5330    10.7150 HW1           1 RES     
    8471 HW2          7.5070    20.3090    10.7610 HW2           1 RES     
    8472 OW           3.1670    29.9540     8.8890 OW            1 RES     
    8473 HW1          2.5010    30.6990     8.8980 HW1           1 RES     
    8474 HW2          4.0920    30.3320     8.9120 HW2           1 RES     
    8475 OW          19.4340    37.0500    21.7260 OW            1 RES     
    8476 HW1         18.8130    36.5360    21.1350 HW1           1 RES     
    8477 HW2         20.3700    36.9610    21.3840 HW2           1 RES     
    8478 OW           5.3580    19.4430     8.6330 OW            1 RES     
    8479 HW1          5.0610    20.2450     8.1150 HW1           1 RES     
    8480 HW2          6.3390    19.5110     8.8190 HW2           1 RES     
    8481 OW          37.4610    10.7480    13.5270 OW            1 RES     
    8482 HW1         38.2690    10.1620    13.5580 HW1           1 RES     
    8483 HW2         37.1370    10.9200    14.4570 HW2           1 RES     
    8484 OW          35.3690    15.0110     4.8480 OW            1 RES     
    8485 HW1         35.2080    15.9050     4.4310 HW1           1 RES     
    8486 HW2         34.7780    14.9050     5.6480 HW2           1 RES     
    8487 OW          40.5270    29.5760     5.2650 OW            1 RES     
    8488 HW1         40.9270    28.6910     5.0320 HW1           1 RES     
    8489 HW2         39.5290    29.5040     5.2580 HW2           1 RES     
    8490 OW          12.2620    11.6500     6.4830 OW            1 RES     
    8491 HW1         12.3240    12.6430     6.5710 HW1           1 RES     
    8492 HW2         11.3020    11.3710     6.5190 HW2           1 RES     
    8493 OW           7.6270    20.9850     7.8110 OW            1 RES     
    8494 HW1          8.4260    21.5210     7.5410 HW1           1 RES     
    8495 HW2          6.7940    21.5040     7.6150 HW2           1 RES     
    8496 OW          30.1830    32.3800    12.7990 OW            1 RES     
    8497 HW1         31.1760    32.2790    12.7560 HW1           1 RES     
    8498 HW2         29.9430    33.3500    12.7540 HW2           1 RES     
    8499 OW          19.8890    29.6060     4.7090 OW            1 RES     
    8500 HW1         20.8110    29.7210     4.3400 HW1           1 RES     
    8501 HW2         19.7970    28.6880     5.0950 HW2           1 RES     
    8502 OW          30.7670     5.7790     5.2060 OW            1 RES     
    8503 HW1         31.2710     4.9960     4.8430 HW1           1 RES     
    8504 HW2         31.3370     6.2640     5.8700 HW2           1 RES     
    8505 OW          36.7650    38.1490    23.3860 OW            1 RES     
    8506 HW1         37.5740    37.5620    23.3650 HW1           1 RES     
    8507 HW2         35.9420    37.5820    23.4080 HW2           1 RES     
    8508 OW          22.9130    37.0230     5.7810 OW            1 RES     
    8509 HW1         23.6190    37.7250     5.6950 HW1           1 RES     
    8510 HW2         22.7080    36.6420     4.8800 HW2           1 RES     
    8511 OW          22.2200     7.5140     6.0540 OW            1 RES     
    8512 HW1         21.9870     8.4510     6.3100 HW1           1 RES     
    8513 HW2         22.9840     7.1940     6.6150 HW2           1 RES     
    8514 OW          39.0010    18.6410     9.1270 OW            1 RES     
    8515 HW1         39.1430    18.2130    10.0190 HW1           1 RES     
    8516 HW2         38.1420    18.3150     8.7330 HW2           1 RES     
    8517 OW           5.8380    17.5270     9.7510 OW            1 RES     
    8518 HW1          6.0220    18.1450    10.5140 HW1           1 RES     
    8519 HW2          6.7030    17.2090     9.3610 HW2           1 RES     
    8520 OW           2.6330    24.2080    14.1820 OW            1 RES     
    8521 HW1          2.7740    23.2980    14.5710 HW1           1 RES     
    8522 HW2          3.4960    24.5490    13.8090 HW2           1 RES     
    8523 OW          20.1700    11.2070    23.9810 OW            1 RES     
    8524 HW1         21.1530    11.2220    24.1570 HW1           1 RES     
    8525 HW2         19.9900    10.7160    23.1280 HW2           1 RES     
    8526 OW          25.3860     4.5660    16.1700 OW            1 RES     
    8527 HW1         25.2790     4.3180    17.1320 HW1           1 RES     
    8528 HW2         26.2840     4.2680    15.8460 HW2           1 RES     
    8529 OW          24.3200    15.6260    18.3740 OW            1 RES     
    8530 HW1         24.1290    14.6630    18.5610 HW1           1 RES     
    8531 HW2         25.1000    15.9250    18.9250 HW2           1 RES     
    8532 OW          17.2350     6.9610    11.7430 OW            1 RES     
    8533 HW1         16.6350     6.5240    11.0740 HW1           1 RES     
    8534 HW2         16.8590     7.8520    11.9970 HW2           1 RES     
    8535 OW           5.5670    36.8950     2.9200 OW            1 RES     
    8536 HW1          4.6790    36.6500     2.5330 HW1           1 RES     
    8537 HW2          5.6970    36.4160     3.7880 HW2           1 RES     
    8538 OW           6.0490    32.5860     4.4140 OW            1 RES     
    8539 HW1          5.3700    32.6110     5.1470 HW1           1 RES     
    8540 HW2          6.8600    33.1000     4.6930 HW2           1 RES     
    8541 OW          16.3720    20.4910    15.2540 OW            1 RES     
    8542 HW1         16.8730    19.6410    15.4140 HW1           1 RES     
    8543 HW2         15.4140    20.3680    15.5140 HW2           1 RES     
    8544 OW          19.4390    15.3240     6.4560 OW            1 RES     
    8545 HW1         18.8130    15.8380     7.0410 HW1           1 RES     
    8546 HW2         20.1330    14.8770     7.0210 HW2           1 RES     
    8547 OW          10.0250    28.3830     7.6690 OW            1 RES     
    8548 HW1          9.9660    29.1030     8.3600 HW1           1 RES     
    8549 HW2         10.9830    28.2320     7.4250 HW2           1 RES     
    8550 OW          24.3450    18.9660    18.9040 OW            1 RES     
    8551 HW1         24.1830    17.9880    18.7790 HW1           1 RES     
    8552 HW2         24.9610    19.2970    18.1880 HW2           1 RES     
    8553 OW          17.4400     5.3590    15.2900 OW            1 RES     
    8554 HW1         18.4180     5.3720    15.0850 HW1           1 RES     
    8555 HW2         17.1310     4.4120    15.3850 HW2           1 RES     
    8556 OW          23.1800     8.8780    21.3650 OW            1 RES     
    8557 HW1         22.3090     8.8490    20.8760 HW1           1 RES     
    8558 HW2         23.5620     7.9560    21.4230 HW2           1 RES     
    8559 OW          40.1930    19.2930    11.9190 OW            1 RES     
    8560 HW1         39.2170    19.1180    12.0450 HW1           1 RES     
    8561 HW2         40.6440    18.4560    11.6080 HW2           1 RES     
    8562 OW          37.2390    34.0740    12.7400 OW            1 RES     
    8563 HW1         37.5150    34.5490    13.5750 HW1           1 RES     
    8564 HW2         37.1920    33.0910    12.9160 HW2           1 RES     
    8565 OW          20.6590    15.1460    12.2060 OW            1 RES     
    8566 HW1         21.2940    15.8770    11.9600 HW1           1 RES     
    8567 HW2         19.9140    15.5220    12.7590 HW2           1 RES     
    8568 OW          29.1780    31.9870    15.7280 OW            1 RES     
    8569 HW1         30.0150    32.0770    16.2650 HW1           1 RES     
    8570 HW2         28.3910    31.9300    16.3430 HW2           1 RES     
    8571 OW          36.0580    22.8590    10.5150 OW            1 RES     
    8572 HW1         35.5090    22.0770    10.8080 HW1           1 RES     
    8573 HW2         35.7800    23.6720    11.0270 HW2           1 RES     
    8574 OW           4.8640    26.6980    15.5560 OW            1 RES     
    8575 HW1          4.8160    27.3680    16.2960 HW1           1 RES     
    8576 HW2          4.7400    25.7780    15.9300 HW2           1 RES     
    8577 OW          21.1980    21.4750    11.4830 OW            1 RES     
    8578 HW1         21.0850    22.1540    12.2080 HW1           1 RES     
    8579 HW2         20.4480    20.8150    11.5240 HW2           1 RES     
    8580 OW          11.2330    39.1410    21.5350 OW            1 RES     
    8581 HW1         10.8050    40.0150    21.7650 HW1           1 RES     
    8582 HW2         12.2200    39.2680    21.4370 HW2           1 RES     
    8583 OW          28.9930     3.8700     3.3850 OW            1 RES     
    8584 HW1         29.8990     3.9030     2.9640 HW1           1 RES     
    8585 HW2         28.3640     4.4530     2.8710 HW2           1 RES     
    8586 OW          18.7930     7.7100    15.7960 OW            1 RES     
    8587 HW1         18.9340     8.5530    15.2780 HW1           1 RES     
    8588 HW2         19.5970     7.1230    15.7030 HW2           1 RES     
    8589 OW          33.2570    25.7270    10.9130 OW            1 RES     
    8590 HW1         33.5520    26.5790    11.3440 HW1           1 RES     
    8591 HW2         33.4300    24.9620    11.5330 HW2           1 RES     
    8592 OW          27.2940    38.5700    16.0230 OW            1 RES     
    8593 HW1         27.7850    38.0640    16.7320 HW1           1 RES     
    8594 HW2         26.9200    37.9290    15.3530 HW2           1 RES     
    8595 OW          24.4430     7.7120    16.9830 OW            1 RES     
    8596 HW1         25.2710     7.1520    17.0020 HW1           1 RES     
    8597 HW2         23.6450     7.1350    17.1570 HW2           1 RES     
    8598 OW           2.5000    26.9880    12.2240 OW            1 RES     
    8599 HW1          2.5560    26.0220    12.4720 HW1           1 RES     
    8600 HW2          2.9500    27.1330    11.3430 HW2           1 RES     
    8601 OW           4.7910    24.8270    10.4780 OW            1 RES     
    8602 HW1          5.5510    25.4760    10.4640 HW1           1 RES     
    8603 HW2          4.0030    25.2460    10.9310 HW2           1 RES     
    8604 OW          19.9490    24.8440     8.3250 OW            1 RES     
    8605 HW1         20.6930    25.0060     8.9720 HW1           1 RES     
    8606 HW2         19.5570    23.9380     8.4870 HW2           1 RES     
    8607 OW          24.0470    23.4440     2.6730 OW            1 RES     
    8608 HW1         23.4740    22.6320     2.5680 HW1           1 RES     
    8609 HW2         25.0030    23.2020     2.5010 HW2           1 RES     
    8610 OW          19.8750     6.2850    20.4310 OW            1 RES     
    8611 HW1         20.3940     6.5560    21.2410 HW1           1 RES     
    8612 HW2         19.1420     6.9440    20.2690 HW2           1 RES     
    8613 OW          30.7950     4.9190    10.6560 OW            1 RES     
    8614 HW1         29.8900     4.8010    11.0620 HW1           1 RES     
    8615 HW2         30.8200     5.7740    10.1380 HW2           1 RES     
    8616 OW          26.3370    20.2080    10.2080 OW            1 RES     
    8617 HW1         25.8750    20.9830     9.7790 HW1           1 RES     
    8618 HW2         25.9350    20.0350    11.1070 HW2           1 RES     
    8619 OW          14.3950    28.7060    22.6580 OW            1 RES     
    8620 HW1         13.5750    28.3690    23.1200 HW1           1 RES     
    8621 HW2         14.1290    29.2960    21.8950 HW2           1 RES     
    8622 OW          24.8310    27.6850     9.7990 OW            1 RES     
    8623 HW1         25.7340    27.9620     9.4700 HW1           1 RES     
    8624 HW2         24.9010    26.7990    10.2580 HW2           1 RES     
    8625 OW          25.4550    38.7760     6.3000 OW            1 RES     
    8626 HW1         26.2760    38.3490     6.6780 HW1           1 RES     
    8627 HW2         24.8170    38.9870     7.0410 HW2           1 RES     
    8628 OW          34.3620    38.9250     8.2880 OW            1 RES     
    8629 HW1         35.2440    38.5210     8.5270 HW1           1 RES     
    8630 HW2         33.8690    38.3100     7.6720 HW2           1 RES     
    8631 OW          35.5510    12.8910     3.8450 OW            1 RES     
    8632 HW1         35.1430    12.8250     4.7550 HW1           1 RES     
    8633 HW2         35.0080    13.5120     3.2790 HW2           1 RES     
    8634 OW          21.7150     3.0980    13.8130 OW            1 RES     
    8635 HW1         22.5450     2.5450    13.8810 HW1           1 RES     
    8636 HW2         20.9120     2.5040    13.8740 HW2           1 RES     
    8637 OW          32.4860    25.3060    14.3870 OW            1 RES     
    8638 HW1         31.7220    24.6670    14.3060 HW1           1 RES     
    8639 HW2         33.1900    25.0720    13.7170 HW2           1 RES     
    8640 OW          31.8850    33.6670    14.8750 OW            1 RES     
    8641 HW1         30.9080    33.4860    14.7640 HW1           1 RES     
    8642 HW2         32.3850    32.8020    14.8960 HW2           1 RES     
    8643 OW          14.5260    28.7300    16.2000 OW            1 RES     
    8644 HW1         15.1040    28.3950    15.4570 HW1           1 RES     
    8645 HW2         14.1810    27.9550    16.7300 HW2           1 RES     
    8646 OW          25.5290    24.6320    10.2300 OW            1 RES     
    8647 HW1         24.7820    24.3630    10.8360 HW1           1 RES     
    8648 HW2         25.1660    24.8280     9.3190 HW2           1 RES     
    8649 OW           9.7360    27.1820    15.5080 OW            1 RES     
    8650 HW1          9.5790    26.3900    16.0960 HW1           1 RES     
    8651 HW2          9.6210    26.9160    14.5510 HW2           1 RES     
    8652 OW          17.1790    27.5920    12.0430 OW            1 RES     
    8653 HW1         16.5200    27.5740    12.7940 HW1           1 RES     
    8654 HW2         16.8250    27.0590    11.2750 HW2           1 RES     
    8655 OW          30.4740    27.6930    21.5360 OW            1 RES     
    8656 HW1         31.3230    28.1670    21.3050 HW1           1 RES     
    8657 HW2         30.1230    28.0420    22.4050 HW2           1 RES     
    8658 OW           6.1090    30.9150    19.1120 OW            1 RES     
    8659 HW1          6.9700    31.3870    19.3020 HW1           1 RES     
    8660 HW2          5.4120    31.5840    18.8530 HW2           1 RES     
    8661 OW          20.8730    27.7320    16.4390 OW            1 RES     
    8662 HW1         20.8700    27.1050    15.6610 HW1           1 RES     
    8663 HW2         19.9910    28.2000    16.4950 HW2           1 RES     
    8664 OW          18.8010    27.4080    14.8230 OW            1 RES     
    8665 HW1         17.9010    27.7000    14.5020 HW1           1 RES     
    8666 HW2         18.6920    26.7090    15.5300 HW2           1 RES     
    8667 OW          17.7300    39.4230    16.2190 OW            1 RES     
    8668 HW1         17.8020    39.8180    17.1340 HW1           1 RES     
    8669 HW2         17.5800    40.1510    15.5510 HW2           1 RES     
    8670 OW           6.6620    26.3420    16.9120 OW            1 RES     
    8671 HW1          6.7190    25.3520    16.7920 HW1           1 RES     
    8672 HW2          7.5840    26.7260    16.9610 HW2           1 RES     
    8673 OW          39.4370    23.1620    23.8610 OW            1 RES     
    8674 HW1         40.4070    22.9270    23.8220 HW1           1 RES     
    8675 HW2         38.9130    22.3670    24.1700 HW2           1 RES     
    8676 OW           8.3540    39.8530     9.0790 OW            1 RES     
    8677 HW1          8.2180    38.9830     9.5520 HW1           1 RES     
    8678 HW2          9.1800    39.8010     8.5170 HW2           1 RES     
    8679 OW          12.8640    37.0290    16.3610 OW            1 RES     
    8680 HW1         12.8840    36.0470    16.1750 HW1           1 RES     
    8681 HW2         11.9290    37.3690    16.2590 HW2           1 RES     
    8682 OW          33.1190    29.9430    20.9600 OW            1 RES     
    8683 HW1         33.1320    29.5490    20.0410 HW1           1 RES     
    8684 HW2         33.4860    29.2790    21.6120 HW2           1 RES     
    8685 OW          23.4500    24.2920    17.8770 OW            1 RES     
    8686 HW1         22.6420    24.1960    18.4580 HW1           1 RES     
    8687 HW2         23.2090    24.8050    17.0530 HW2           1 RES     
    8688 OW          30.6620    16.0730    13.9560 OW            1 RES     
    8689 HW1         30.2420    15.2860    13.5040 HW1           1 RES     
    8690 HW2         31.3650    15.7560    14.5930 HW2           1 RES     
    8691 OW          28.8890    15.9700     2.5010 OW            1 RES     
    8692 HW1         29.7910    15.6690     2.8080 HW1           1 RES     
    8693 HW2         28.7070    16.8890     2.8520 HW2           1 RES     
    8694 OW          29.1080    40.2960    19.9200 OW            1 RES     
    8695 HW1         28.7140    40.3380    19.0020 HW1           1 RES     
    8696 HW2         28.6180    40.9270    20.5230 HW2           1 RES     
    8697 OW          21.6470    16.6480    14.0290 OW            1 RES     
    8698 HW1         22.5600    16.2420    14.0090 HW1           1 RES     
    8699 HW2         21.6450    17.4340    14.6470 HW2           1 RES     
    8700 OW          10.0740    21.6370    16.3670 OW            1 RES     
    8701 HW1         10.5110    21.6410    15.4680 HW1           1 RES     
    8702 HW2          9.2280    22.1700    16.3280 HW2           1 RES     
    8703 OW          11.9180    22.1160     2.5000 OW            1 RES     
    8704 HW1         12.6080    21.4000     2.5970 HW1           1 RES     
    8705 HW2         11.8150    22.6000     3.3690 HW2           1 RES     
    8706 OW          27.2560    35.1430     3.5880 OW            1 RES     
    8707 HW1         26.3290    34.7700     3.6270 HW1           1 RES     
    8708 HW2         27.9150    34.3930     3.5320 HW2           1 RES     
    8709 OW          30.1410    35.1060    19.3180 OW            1 RES     
    8710 HW1         30.2920    34.6550    20.1970 HW1           1 RES     
    8711 HW2         29.9050    34.4210    18.6280 HW2           1 RES     
    8712 OW           2.6240    10.1800    11.2620 OW            1 RES     
    8713 HW1          2.5010    10.2180    12.2530 HW1           1 RES     
    8714 HW2          3.4050     9.5940    11.0450 HW2           1 RES     
    8715 OW          30.3750    11.2310    18.9600 OW            1 RES     
    8716 HW1         30.9200    11.5110    18.1700 HW1           1 RES     
    8717 HW2         30.5510    11.8520    19.7240 HW2           1 RES     
    8718 OW          13.8420    16.7840    23.3680 OW            1 RES     
    8719 HW1         13.1460    16.0960    23.5680 HW1           1 RES     
    8720 HW2         14.4270    16.9100    24.1700 HW2           1 RES     
    8721 OW          19.5030    33.8760    24.1690 OW            1 RES     
    8722 HW1         20.2970    34.3520    23.7930 HW1           1 RES     
    8723 HW2         18.6890    34.4470    24.0590 HW2           1 RES     
    8724 OW          36.3700    28.0790     2.6450 OW            1 RES     
    8725 HW1         36.1580    29.0450     2.5000 HW1           1 RES     
    8726 HW2         35.5260    27.5440     2.6220 HW2           1 RES     
    8727 OW           3.1740     9.2370    14.1040 OW            1 RES     
    8728 HW1          2.5030     8.5430    14.3580 HW1           1 RES     
    8729 HW2          4.0970     8.8750    14.2380 HW2           1 RES     
    8730 OW          25.3370    15.2720     7.0090 OW            1 RES     
    8731 HW1         25.9660    15.5490     6.2830 HW1           1 RES     
    8732 HW2         25.8590    14.9240     7.7880 HW2           1 RES     
    8733 OW          30.4110    16.9090     6.7500 OW            1 RES     
    8734 HW1         30.3060    17.7360     7.3010 HW1           1 RES     
    8735 HW2         31.3840    16.7200     6.6130 HW2           1 RES     
    8736 OW           9.0560     5.9590    14.7490 OW            1 RES     
    8737 HW1          8.5220     6.6930    15.1690 HW1           1 RES     
    8738 HW2          8.5520     5.5810    13.9730 HW2           1 RES     
    8739 OW          25.8560    20.1580    14.1860 OW            1 RES     
    8740 HW1         26.6390    20.6590    14.5530 HW1           1 RES     
    8741 HW2         26.1190    19.7060    13.3340 HW2           1 RES     
    8742 OW          11.7620    29.6260    13.0860 OW            1 RES     
    8743 HW1         11.1760    30.2520    12.5730 HW1           1 RES     
    8744 HW2         11.4960    29.6340    14.0500 HW2           1 RES     
    8745 OW          11.7860    14.0740     2.8760 OW            1 RES     
    8746 HW1         12.7710    14.0450     2.7070 HW1           1 RES     
    8747 HW2         11.5050    15.0190     3.0480 HW2           1 RES     
    8748 OW           4.5460    13.8220     5.1560 OW            1 RES     
    8749 HW1          4.5980    14.2500     4.2540 HW1           1 RES     
    8750 HW2          4.2380    14.4950     5.8280 HW2           1 RES     
    8751 OW          33.8280     7.3430     4.6580 OW            1 RES     
    8752 HW1         33.5990     6.5260     5.1860 HW1           1 RES     
    8753 HW2         34.7900     7.5760     4.8040 HW2           1 RES     
    8754 OW          25.1780     7.1280    14.2940 OW            1 RES     
    8755 HW1         25.1130     6.3760    14.9500 HW1           1 RES     
    8756 HW2         26.1400     7.3440    14.1290 HW2           1 RES     
    8757 OW          34.5350    25.9590     8.3700 OW            1 RES     
    8758 HW1         35.0110    25.5980     9.1710 HW1           1 RES     
    8759 HW2         33.5920    26.1850     8.6160 HW2           1 RES     
    8760 OW           3.3210     7.6940    16.7630 OW            1 RES     
    8761 HW1          3.6860     6.9370    17.3030 HW1           1 RES     
    8762 HW2          2.5040     8.0590    17.2090 HW2           1 RES     
    8763 OW          19.3820    25.1900    13.3160 OW            1 RES     
    8764 HW1         19.2980    26.1570    13.0820 HW1           1 RES     
    8765 HW2         18.8520    24.9990    14.1430 HW2           1 RES     
    8766 OW          38.2850     9.1580     6.6860 OW            1 RES     
    8767 HW1         37.3130     9.2790     6.8850 HW1           1 RES     
    8768 HW2         38.7490    10.0430     6.7380 HW2           1 RES     
    8769 OW          18.3230     9.5530    12.5110 OW            1 RES     
    8770 HW1         17.5020     9.7690    13.0390 HW1           1 RES     
    8771 HW2         18.7680    10.4010    12.2240 HW2           1 RES     
    8772 OW          33.4400    21.0050    21.1480 OW            1 RES     
    8773 HW1         34.1850    21.2750    20.5390 HW1           1 RES     
    8774 HW2         32.6600    21.6170    21.0120 HW2           1 RES     
    8775 OW          31.0720     6.0470    21.5870 OW            1 RES     
    8776 HW1         31.7800     5.5630    22.1000 HW1           1 RES     
    8777 HW2         31.4440     6.3500    20.7090 HW2           1 RES     
    8778 OW          39.5650    35.0920    15.9280 OW            1 RES     
    8779 HW1         38.9000    35.8380    15.9060 HW1           1 RES     
    8780 HW2         40.4910    35.4700    15.9300 HW2           1 RES     
    8781 OW           9.7750    30.5370     3.1130 OW            1 RES     
    8782 HW1         10.5280    30.7740     2.5000 HW1           1 RES     
    8783 HW2          8.9460    30.3760     2.5770 HW2           1 RES     
    8784 OW          12.6970    19.1030     2.7780 OW            1 RES     
    8785 HW1         12.4980    19.4120     3.7070 HW1           1 RES     
    8786 HW2         13.5980    19.4370     2.5000 HW2           1 RES     
    8787 OW          27.0540    11.3960     2.5000 OW            1 RES     
    8788 HW1         27.7990    10.9660     3.0100 HW1           1 RES     
    8789 HW2         27.0970    12.3880     2.6200 HW2           1 RES     
    8790 OW          24.7980    34.2730    22.0230 OW            1 RES     
    8791 HW1         24.0780    33.9690    21.4000 HW1           1 RES     
    8792 HW2         24.4290    34.9600    22.6500 HW2           1 RES     
    8793 OW          32.2500    26.6340    16.8620 OW            1 RES     
    8794 HW1         32.1830    27.2250    16.0590 HW1           1 RES     
    8795 HW2         33.0460    26.0360    16.7700 HW2           1 RES     
    8796 OW          33.7270    17.2000     2.5020 OW            1 RES     
    8797 HW1         34.1030    18.1150     2.6420 HW1           1 RES     
    8798 HW2         32.7280    17.2460     2.5010 HW2           1 RES     
    8799 OW          37.1150    24.5130     9.3850 OW            1 RES     
    8800 HW1         37.2110    25.2980     8.7740 HW1           1 RES     
    8801 HW2         37.9690    23.9920     9.3950 HW2           1 RES     
    8802 OW          31.9440    31.8880    23.6530 OW            1 RES     
    8803 HW1         31.2600    31.1620    23.5880 HW1           1 RES     
    8804 HW2         31.5090    32.7730    23.4890 HW2           1 RES     
    8805 OW          39.5990    39.5900    17.1970 OW            1 RES     
    8806 HW1         40.5480    39.2790    17.1960 HW1           1 RES     
    8807 HW2         38.9880    38.7980    17.1980 HW2           1 RES     
    8808 OW          36.8070    25.6110     4.9200 OW            1 RES     
    8809 HW1         37.7260    25.5500     5.3080 HW1           1 RES     
    8810 HW2         36.6180    26.5580     4.6590 HW2           1 RES     
    8811 OW          23.6150    22.7050    11.7670 OW            1 RES     
    8812 HW1         22.8390    23.2650    11.4790 HW1           1 RES     
    8813 HW2         23.2870    21.8160    12.0840 HW2           1 RES     
    8814 OW           4.3150     6.3540    14.9100 OW            1 RES     
    8815 HW1          4.7590     5.4630    14.8220 HW1           1 RES     
    8816 HW2          4.9110     6.9760    15.4190 HW2           1 RES     
    8817 OW          15.0810    17.5170     4.6170 OW            1 RES     
    8818 HW1         14.1640    17.6900     4.9740 HW1           1 RES     
    8819 HW2         15.1280    16.5850     4.2560 HW2           1 RES     
    8820 OW           8.4300    23.6160     6.3670 OW            1 RES     
    8821 HW1          8.4860    24.2590     7.1300 HW1           1 RES     
    8822 HW2          7.5380    23.1630     6.3770 HW2           1 RES     
    8823 OW          23.7420    29.7580     7.8240 OW            1 RES     
    8824 HW1         24.6200    29.2890     7.9050 HW1           1 RES     
    8825 HW2         23.0050    29.1360     8.0900 HW2           1 RES     
    8826 OW          38.7400    12.5150    20.9950 OW            1 RES     
    8827 HW1         38.9090    13.4770    20.7830 HW1           1 RES     
    8828 HW2         39.4930    11.9580    20.6440 HW2           1 RES     
    8829 OW          26.3010    19.7860     5.9050 OW            1 RES     
    8830 HW1         25.6260    20.3720     6.3520 HW1           1 RES     
    8831 HW2         27.0400    20.3500     5.5350 HW2           1 RES     
    8832 OW          18.6430     2.8330    18.7750 OW            1 RES     
    8833 HW1         19.1240     3.5160    18.2260 HW1           1 RES     
    8834 HW2         17.7030     3.1340    18.9350 HW2           1 RES     
    8835 OW          31.5820    24.2140    17.3320 OW            1 RES     
    8836 HW1         31.6780    24.5810    18.2570 HW1           1 RES     
    8837 HW2         30.8780    23.5040    17.3270 HW2           1 RES     
    8838 OW          34.2230    25.3890     3.0150 OW            1 RES     
    8839 HW1         34.3090    25.9900     3.8100 HW1           1 RES     
    8840 HW2         35.0810    25.3930     2.5000 HW2           1 RES     
    8841 OW          18.6790    36.6440    24.1690 OW            1 RES     
    8842 HW1         19.5970    36.4370    23.8330 HW1           1 RES     
    8843 HW2         18.0450    36.6970    23.3970 HW2           1 RES     
    8844 OW           3.7520     9.1600     4.4850 OW            1 RES     
    8845 HW1          4.6290     8.9820     4.9300 HW1           1 RES     
    8846 HW2          3.2890     9.9140     4.9510 HW2           1 RES     
    8847 OW           4.2740    29.0540    18.6630 OW            1 RES     
    8848 HW1          3.5010    28.4580    18.8780 HW1           1 RES     
    8849 HW2          5.1070    28.6800    19.0710 HW2           1 RES     
    8850 OW          30.6600     2.5000     9.7960 OW            1 RES     
    8851 HW1         30.5000     2.7090    10.7600 HW1           1 RES     
    8852 HW2         31.4010     3.0740     9.4480 HW2           1 RES     
    8853 OW          18.9340    34.7840    12.9550 OW            1 RES     
    8854 HW1         19.2180    35.5260    13.5610 HW1           1 RES     
    8855 HW2         18.2480    35.1230    12.3100 HW2           1 RES     
    8856 OW          26.5500    34.6320    10.6620 OW            1 RES     
    8857 HW1         27.3870    34.6120    11.2080 HW1           1 RES     
    8858 HW2         25.7740    34.8630    11.2490 HW2           1 RES     
    8859 OW           4.4580    34.2480     3.5250 OW            1 RES     
    8860 HW1          4.7950    34.2210     2.5850 HW1           1 RES     
    8861 HW2          3.4580    34.2050     3.5220 HW2           1 RES     
    8862 OW           6.9960    27.3880     2.5000 OW            1 RES     
    8863 HW1          7.7460    26.7280     2.5020 HW1           1 RES     
    8864 HW2          7.3680    28.3170     2.5000 HW2           1 RES     
    8865 OW          10.5900    27.3720    23.2610 OW            1 RES     
    8866 HW1         11.4730    26.9060    23.2330 HW1           1 RES     
    8867 HW2          9.8540    26.6990    23.1890 HW2           1 RES     
    8868 OW          11.3800    13.6380    24.1700 OW            1 RES     
    8869 HW1         11.2160    14.6110    24.0140 HW1           1 RES     
    8870 HW2         10.6560    13.1030    23.7340 HW2           1 RES     
    8871 OW          31.8870    32.6430     3.1550 OW            1 RES     
    8872 HW1         31.0420    32.8560     2.6650 HW1           1 RES     
    8873 HW2         32.5920    32.3700     2.5000 HW2           1 RES     
    8874 OW          21.2430    22.8250    20.9190 OW            1 RES     
    8875 HW1         20.8710    21.8990    20.8730 HW1           1 RES     
    8876 HW2         22.2410    22.7880    20.8530 HW2           1 RES     
    8877 OW           8.1420     6.0250     2.8850 OW            1 RES     
    8878 HW1          8.7800     6.7900     2.9710 HW1           1 RES     
    8879 HW2          7.2040     6.3630     2.9640 HW2           1 RES     
    8880 OW           8.1450     2.9950    15.7460 OW            1 RES     
    8881 HW1          7.3600     2.5000    15.3740 HW1           1 RES     
    8882 HW2          8.1710     3.9170    15.3610 HW2           1 RES     
    8883 OW          27.9320    19.9750     3.2200 OW            1 RES     
    8884 HW1         27.0160    19.9060     2.8250 HW1           1 RES     
    8885 HW2         28.5900    20.1970     2.5000 HW2           1 RES     
    8886 OW           8.7020    16.5490    22.3700 OW            1 RES     
    8887 HW1          8.9370    17.5200    22.4010 HW1           1 RES     
    8888 HW2          7.8750    16.3880    22.9080 HW2           1 RES     
    8889 OW           8.3170    24.0940    13.1250 OW            1 RES     
    8890 HW1          7.8560    24.8280    12.6270 HW1           1 RES     
    8891 HW2          8.8270    23.5230    12.4810 HW2           1 RES     
    8892 OW          14.6070    36.0770    24.1700 OW            1 RES     
    8893 HW1         15.5320    36.4230    24.0130 HW1           1 RES     
    8894 HW2         14.6200    35.0770    24.1690 HW2           1 RES     
    8895 OW          27.0360    11.8540     7.5800 OW            1 RES     
    8896 HW1         26.4220    12.3490     6.9670 HW1           1 RES     
    8897 HW2         27.1940    10.9330     7.2220 HW2           1 RES     
    8898 OW          37.2060    20.1250     6.7790 OW            1 RES     
    8899 HW1         38.1460    20.4050     6.5910 HW1           1 RES     
    8900 HW2         37.0080    19.2720     6.2960 HW2           1 RES     
    8901 OW           6.9940    26.1190    14.5580 OW            1 RES     
    8902 HW1          7.4450    26.8090    13.9940 HW1           1 RES     
    8903 HW2          7.6500    25.4040    14.7990 HW2           1 RES     
    8904 OW          26.6500    25.5290    20.1440 OW            1 RES     
    8905 HW1         26.2290    26.0760    20.8660 HW1           1 RES     
    8906 HW2         27.5420    25.1980    20.4530 HW2           1 RES     
    8907 OW           9.0250    30.5410    13.6490 OW            1 RES     
    8908 HW1          9.6740    31.2840    13.8050 HW1           1 RES     
    8909 HW2          8.1780    30.9120    13.2670 HW2           1 RES     
    8910 OW          30.5520    18.1590    11.9720 OW            1 RES     
    8911 HW1         30.7470    19.0290    11.5210 HW1           1 RES     
    8912 HW2         29.5650    18.0600    12.0960 HW2           1 RES     
    8913 OW          19.9510    39.1930    13.7600 OW            1 RES     
    8914 HW1         20.6760    38.5170    13.8850 HW1           1 RES     
    8915 HW2         19.7160    39.5970    14.6440 HW2           1 RES     
    8916 OW           3.3810    30.5660    21.2600 OW            1 RES     
    8917 HW1          2.5180    30.7320    20.7830 HW1           1 RES     
    8918 HW2          4.0100    31.3240    21.0850 HW2           1 RES     
    8919 OW          32.2690    30.6540    16.3320 OW            1 RES     
    8920 HW1         33.0790    31.2380    16.2920 HW1           1 RES     
    8921 HW2         31.7180    30.7890    15.5080 HW2           1 RES     
    8922 OW          26.9540    39.6740    21.2290 OW            1 RES     
    8923 HW1         26.1650    39.1120    20.9830 HW1           1 RES     
    8924 HW2         26.7190    40.2560    22.0090 HW2           1 RES     
    8925 OW           9.7690    12.2470    10.4740 OW            1 RES     
    8926 HW1          9.1330    11.5930    10.0650 HW1           1 RES     
    8927 HW2          9.5270    12.3920    11.4340 HW2           1 RES     
    8928 OW          25.0950    33.2130    15.3410 OW            1 RES     
    8929 HW1         25.9120    32.7940    14.9460 HW1           1 RES     
    8930 HW2         24.9910    34.1420    14.9850 HW2           1 RES     
    8931 OW          31.0590    16.0690    17.7880 OW            1 RES     
    8932 HW1         30.4680    16.2560    17.0040 HW1           1 RES     
    8933 HW2         31.1350    16.8910    18.3530 HW2           1 RES     
    8934 OW          19.1440    30.0790     2.6940 OW            1 RES     
    8935 HW1         18.1660    29.9710     2.5180 HW1           1 RES     
    8936 HW2         19.6150    29.2190     2.5000 HW2           1 RES     
    8937 OW          32.9470    10.9760    10.1660 OW            1 RES     
    8938 HW1         32.7390    11.0200     9.1900 HW1           1 RES     
    8939 HW2         32.1220    11.1840    10.6930 HW2           1 RES     
    8940 OW           3.1460    36.6170    22.3160 OW            1 RES     
    8941 HW1          2.7110    35.9000    22.8610 HW1           1 RES     
    8942 HW2          2.5000    37.3670    22.1750 HW2           1 RES     
    8943 OW          36.6160     4.9770     8.7230 OW            1 RES     
    8944 HW1         36.8330     4.2880     8.0330 HW1           1 RES     
    8945 HW2         35.9970     5.6580     8.3330 HW2           1 RES     
    8946 OW           8.6710    34.6430    12.2010 OW            1 RES     
    8947 HW1          8.1960    35.4470    12.5560 HW1           1 RES     
    8948 HW2          9.6100    34.8890    11.9600 HW2           1 RES     
    8949 OW          11.9310    34.3190    12.8860 OW            1 RES     
    8950 HW1         11.3820    35.0710    13.2510 HW1           1 RES     
    8951 HW2         12.8790    34.6190    12.7800 HW2           1 RES     
    8952 OW          29.2260    23.6890     9.3220 OW            1 RES     
    8953 HW1         28.9540    24.5730     9.7000 HW1           1 RES     
    8954 HW2         30.2240    23.6170     9.3250 HW2           1 RES     
    8955 OW          14.1450    25.1490    15.8550 OW            1 RES     
    8956 HW1         14.1700    26.0990    15.5470 HW1           1 RES     
    8957 HW2         13.7440    25.1050    16.7710 HW2           1 RES     
    8958 OW          40.8780    30.2760     2.9580 OW            1 RES     
    8959 HW1         40.9260    31.2700     3.0580 HW1           1 RES     
    8960 HW2         40.0240    30.0280     2.5010 HW2           1 RES     
    8961 OW           5.0650    24.3400     7.7840 OW            1 RES     
    8962 HW1          5.7360    23.6380     7.5450 HW1           1 RES     
    8963 HW2          4.1420    23.9740     7.6650 HW2           1 RES     
    8964 OW          35.7000    20.3420    12.1970 OW            1 RES     
    8965 HW1         35.8840    19.3600    12.1550 HW1           1 RES     
    8966 HW2         36.5310    20.8250    12.4740 HW2           1 RES     
    8967 OW          19.5150    37.2890     3.5380 OW            1 RES     
    8968 HW1         18.9370    36.8440     4.2210 HW1           1 RES     
    8969 HW2         20.3650    36.7720     3.4320 HW2           1 RES     
    8970 OW          38.6070    16.2800     6.4050 OW            1 RES     
    8971 HW1         38.9590    15.9970     5.5130 HW1           1 RES     
    8972 HW2         38.6440    15.5070     7.0390 HW2           1 RES     
    8973 OW          21.0150    24.9180    17.1650 OW            1 RES     
    8974 HW1         20.9700    24.8360    16.1700 HW1           1 RES     
    8975 HW2         20.6020    25.7840    17.4490 HW2           1 RES     
    8976 OW          10.2120    32.2950    11.4440 OW            1 RES     
    8977 HW1          9.4530    31.6770    11.6450 HW1           1 RES     
    8978 HW2         10.4260    32.8360    12.2580 HW2           1 RES     
    8979 OW          30.6090    39.4020    11.2020 OW            1 RES     
    8980 HW1         31.0090    39.0470    12.0460 HW1           1 RES     
    8981 HW2         31.2120    39.1900    10.4320 HW2           1 RES     
    8982 OW          33.8400     4.8410    18.0370 OW            1 RES     
    8983 HW1         33.4790     5.2830    17.2160 HW1           1 RES     
    8984 HW2         34.4790     5.4590    18.4960 HW2           1 RES     
    8985 OW          35.5360    14.3500     7.7020 OW            1 RES     
    8986 HW1         34.5390    14.3560     7.7690 HW1           1 RES     
    8987 HW2         35.8690    15.2880     7.6010 HW2           1 RES     
    8988 OW          35.7290    23.3210    16.4540 OW            1 RES     
    8989 HW1         35.1550    24.1260    16.3080 HW1           1 RES     
    8990 HW2         35.1480    22.5230    16.6200 HW2           1 RES     
    8991 OW          13.3370    28.1330     2.5960 OW            1 RES     
    8992 HW1         12.5200    27.5820     2.7640 HW1           1 RES     
    8993 HW2         13.0770    29.0950     2.5010 HW2           1 RES     
    8994 OW          19.8590    16.3090    15.2640 OW            1 RES     
    8995 HW1         18.9150    16.6370    15.2470 HW1           1 RES     
    8996 HW2         19.8880    15.3590    14.9530 HW2           1 RES     
    8997 OW          33.3860    36.5200    10.6890 OW            1 RES     
    8998 HW1         33.1480    37.3720    10.2240 HW1           1 RES     
    8999 HW2         33.3120    35.7570    10.0470 HW2           1 RES     
    9000 OW           3.0320    17.7870     7.9360 OW            1 RES     
    9001 HW1          3.9700    18.0240     7.6850 HW1           1 RES     
    9002 HW2          2.5000    18.6230     8.0660 HW2           1 RES     
    9003 OW          25.3410    17.6150    16.3280 OW            1 RES     
    9004 HW1         25.4980    16.7090    16.7210 HW1           1 RES     
    9005 HW2         26.0690    17.8270    15.6760 HW2           1 RES     
    9006 OW           9.6390     6.3190     8.9160 OW            1 RES     
    9007 HW1          8.8900     5.6670     8.8000 HW1           1 RES     
    9008 HW2         10.5120     5.8310     8.9020 HW2           1 RES     
    9009 OW           9.1820    28.8510    17.0350 OW            1 RES     
    9010 HW1          8.6210    28.9430    16.2130 HW1           1 RES     
    9011 HW2          9.2460    29.7360    17.4970 HW2           1 RES     
    9012 OW           4.8730    35.7220    21.2880 OW            1 RES     
    9013 HW1          5.8070    35.6100    20.9510 HW1           1 RES     
    9014 HW2          4.2760    35.9970    20.5340 HW2           1 RES     
    9015 OW          35.0300    19.5850     8.0140 OW            1 RES     
    9016 HW1         34.9600    19.6370     7.0180 HW1           1 RES     
    9017 HW2         35.9010    19.1620     8.2650 HW2           1 RES     
    9018 OW          29.7790    20.7080     9.3180 OW            1 RES     
    9019 HW1         29.3240    19.8240     9.2220 HW1           1 RES     
    9020 HW2         30.3140    20.7190    10.1630 HW2           1 RES     
    9021 OW          21.2140    18.4020    19.7420 OW            1 RES     
    9022 HW1         21.0860    19.3790    19.9070 HW1           1 RES     
    9023 HW2         22.1920    18.1970    19.6920 HW2           1 RES     
    9024 OW          24.3410    14.0260    14.9770 OW            1 RES     
    9025 HW1         24.7700    13.2040    14.6040 HW1           1 RES     
    9026 HW2         24.4960    14.0650    15.9640 HW2           1 RES     
    9027 OW          11.7030    24.2860    16.8480 OW            1 RES     
    9028 HW1         11.3520    23.3510    16.8860 HW1           1 RES     
    9029 HW2         10.9540    24.9310    17.0020 HW2           1 RES     
    9030 OW          22.2580     5.1350    15.5110 OW            1 RES     
    9031 HW1         22.1410     4.1590    15.6920 HW1           1 RES     
    9032 HW2         23.2330     5.3490    15.4530 HW2           1 RES     
    9033 OW          32.3050    20.0270     7.8930 OW            1 RES     
    9034 HW1         32.8710    19.2060     7.8280 HW1           1 RES     
    9035 HW2         31.3610    19.7670     8.0980 HW2           1 RES     
    9036 OW          18.9370    25.1270     3.7730 OW            1 RES     
    9037 HW1         19.3510    25.5610     4.5720 HW1           1 RES     
    9038 HW2         19.4910    25.3220     2.9630 HW2           1 RES     
    9039 OW          14.9760     8.2000     2.9810 OW            1 RES     
    9040 HW1         15.2780     7.3770     2.5020 HW1           1 RES     
    9041 HW2         14.1220     8.5270     2.5770 HW2           1 RES     
    9042 OW           7.9020    35.3350    18.8920 OW            1 RES     
    9043 HW1          8.0840    34.6000    19.5440 HW1           1 RES     
    9044 HW2          7.0980    35.8520    19.1870 HW2           1 RES     
    9045 OW          23.3040    30.0170     3.4610 OW            1 RES     
    9046 HW1         23.8750    30.8320     3.5520 HW1           1 RES     
    9047 HW2         22.9370    29.9690     2.5310 HW2           1 RES     
    9048 OW           5.0580    38.4720    20.7570 OW            1 RES     
    9049 HW1          4.1030    38.1830    20.7090 HW1           1 RES     
    9050 HW2          5.5820    37.8070    21.2910 HW2           1 RES     
    9051 OW          31.2340     6.0590    16.5700 OW            1 RES     
    9052 HW1         31.2630     5.2880    17.2040 HW1           1 RES     
    9053 HW2         31.8900     5.9080    15.8300 HW2           1 RES     
    9054 OW          28.2100    25.9420    13.0000 OW            1 RES     
    9055 HW1         28.3060    25.0170    12.6340 HW1           1 RES     
    9056 HW2         27.6390    25.9190    13.8210 HW2           1 RES     
    9057 OW          23.4200     5.8470    18.9260 OW            1 RES     
    9058 HW1         23.7550     4.9300    19.1440 HW1           1 RES     
    9059 HW2         22.4760     5.9410    19.2420 HW2           1 RES     
    9060 OW           9.7980     5.3050    16.7570 OW            1 RES     
    9061 HW1         10.2700     6.1660    16.5720 HW1           1 RES     
    9062 HW2         10.1180     4.6050    16.1190 HW2           1 RES     
    9063 OW          32.8550    14.8240     4.0930 OW            1 RES     
    9064 HW1         32.0050    15.3460     4.1560 HW1           1 RES     
    9065 HW2         33.4220    15.1960     3.3590 HW2           1 RES     
    9066 OW          34.2850    21.7180     6.5590 OW            1 RES     
    9067 HW1         35.1970    21.8720     6.9390 HW1           1 RES     
    9068 HW2         33.6040    21.7810     7.2890 HW2           1 RES     
    9069 OW          33.5650    26.5820    21.4300 OW            1 RES     
    9070 HW1         33.1020    27.0390    20.6710 HW1           1 RES     
    9071 HW2         34.2870    27.1750    21.7870 HW2           1 RES     
    9072 OW          15.6540    20.2390     2.7070 OW            1 RES     
    9073 HW1         15.5690    19.5930     3.4650 HW1           1 RES     
    9074 HW2         15.2280    21.1080     2.9600 HW2           1 RES     
    9075 OW           3.2270     5.9210     6.1420 OW            1 RES     
    9076 HW1          2.8230     5.8230     5.2330 HW1           1 RES     
    9077 HW2          2.5000     5.9610     6.8280 HW2           1 RES     
    9078 OW           3.1810    30.0080    16.3170 OW            1 RES     
    9079 HW1          2.5000    29.9060    15.5930 HW1           1 RES     
    9080 HW2          3.5010    29.1050    16.6040 HW2           1 RES     
    9081 OW          31.9030     4.8320     2.7050 OW            1 RES     
    9082 HW1         32.2200     5.7600     2.9000 HW1           1 RES     
    9083 HW2         32.6870     4.2470     2.5000 HW2           1 RES     
    9084 OW          14.7900    23.5490    20.2960 OW            1 RES     
    9085 HW1         14.3750    22.6400    20.2700 HW1           1 RES     
    9086 HW2         14.0720    24.2450    20.2720 HW2           1 RES     
    9087 OW          26.2540    26.7830     7.1120 OW            1 RES     
    9088 HW1         25.7220    26.3920     7.8620 HW1           1 RES     
    9089 HW2         26.1220    26.2330     6.2870 HW2           1 RES     
    9090 OW          29.8150    33.9700     5.7330 OW            1 RES     
    9091 HW1         30.4370    34.2490     6.4640 HW1           1 RES     
    9092 HW2         29.5220    34.7760     5.2180 HW2           1 RES     
    9093 OW           5.3670    10.3100    13.1200 OW            1 RES     
    9094 HW1          4.4690    10.7480    13.0800 HW1           1 RES     
    9095 HW2          6.0800    11.0110    13.1280 HW2           1 RES     
    9096 OW          11.0490    24.6910    23.1910 OW            1 RES     
    9097 HW1         11.7710    24.6950    22.5000 HW1           1 RES     
    9098 HW2         11.4560    24.5760    24.0980 HW2           1 RES     
    9099 OW           3.0810    25.4190     8.9410 OW            1 RES     
    9100 HW1          3.7820    25.9780     8.5000 HW1           1 RES     
    9101 HW2          2.5000    26.0000     9.5120 HW2           1 RES     
    9102 OW          22.3340    40.3080    14.5200 OW            1 RES     
    9103 HW1         21.6310    40.9270    14.1710 HW1           1 RES     
    9104 HW2         22.8570    40.7690    15.2380 HW2           1 RES     
    9105 OW          16.4980    34.8400    17.6800 OW            1 RES     
    9106 HW1         17.1940    35.2580    17.0970 HW1           1 RES     
    9107 HW2         16.9210    34.5240    18.5290 HW2           1 RES     
    9108 OW          37.7770    29.9640    23.9510 OW            1 RES     
    9109 HW1         38.3040    30.7990    24.1080 HW1           1 RES     
    9110 HW2         37.7410    29.7710    22.9700 HW2           1 RES     
    9111 OW          31.9060    33.5350    10.7790 OW            1 RES     
    9112 HW1         32.6280    34.0260    11.2640 HW1           1 RES     
    9113 HW2         31.6820    34.0190     9.9330 HW2           1 RES     
    9114 OW          12.5790    27.6930    20.6830 OW            1 RES     
    9115 HW1         12.8910    28.5340    20.2420 HW1           1 RES     
    9116 HW2         11.6510    27.8220    21.0310 HW2           1 RES     
    9117 OW          26.8850    36.6910    24.1700 OW            1 RES     
    9118 HW1         26.2490    35.9650    23.9090 HW1           1 RES     
    9119 HW2         26.4620    37.5820    24.0030 HW2           1 RES     
    9120 OW          39.1640    28.1760    24.1540 OW            1 RES     
    9121 HW1         39.8270    27.4280    24.1700 HW1           1 RES     
    9122 HW2         38.2630    27.8190    23.9080 HW2           1 RES     
    9123 OW          22.3260     4.5520     5.3440 OW            1 RES     
    9124 HW1         21.3700     4.8130     5.4720 HW1           1 RES     
    9125 HW2         22.8790     5.3720     5.1970 HW2           1 RES     
    9126 OW          38.6210    28.1880    10.2370 OW            1 RES     
    9127 HW1         38.5450    27.6770     9.3820 HW1           1 RES     
    9128 HW2         39.2270    28.9730    10.1040 HW2           1 RES     
    9129 OW           9.0820    34.1170     9.8090 OW            1 RES     
    9130 HW1          8.6290    34.9890     9.9930 HW1           1 RES     
    9131 HW2          8.5950    33.3810    10.2800 HW2           1 RES     
    9132 OW          38.4530     9.7010    15.8120 OW            1 RES     
    9133 HW1         39.3900     9.5520    15.4960 HW1           1 RES     
    9134 HW2         38.3850    10.6020    16.2410 HW2           1 RES     
    9135 OW          19.7770    23.0150    13.9250 OW            1 RES     
    9136 HW1         20.6260    23.3390    14.3430 HW1           1 RES     
    9137 HW2         19.4070    22.2590    14.4650 HW2           1 RES     
    9138 OW          18.0430    29.0800     9.8830 OW            1 RES     
    9139 HW1         18.6730    28.3040     9.8930 HW1           1 RES     
    9140 HW2         17.1010    28.7450     9.8890 HW2           1 RES     
    9141 OW           3.0780    18.5840    15.7880 OW            1 RES     
    9142 HW1          2.5000    19.4000    15.7790 HW1           1 RES     
    9143 HW2          2.5010    17.7670    15.8030 HW2           1 RES     
    9144 OW          32.1000    28.0430     7.7560 OW            1 RES     
    9145 HW1         31.6890    27.2000     8.1030 HW1           1 RES     
    9146 HW2         32.8920    27.8200     7.1880 HW2           1 RES     
    9147 OW          21.3710     3.9230     3.4600 OW            1 RES     
    9148 HW1         21.1130     3.1490     4.0360 HW1           1 RES     
    9149 HW2         22.0990     3.6450     2.8330 HW2           1 RES     
    9150 OW          29.6010    29.3010    14.1370 OW            1 RES     
    9151 HW1         30.4440    29.4290    13.6160 HW1           1 RES     
    9152 HW2         29.3860    28.3250    14.1900 HW2           1 RES     
    9153 OW          14.4470    31.4070    17.7640 OW            1 RES     
    9154 HW1         14.6440    31.2970    18.7380 HW1           1 RES     
    9155 HW2         14.9220    32.2160    17.4160 HW2           1 RES     
    9156 OW          30.5810    14.3930    19.1300 OW            1 RES     
    9157 HW1         30.0050    13.9800    19.8350 HW1           1 RES     
    9158 HW2         30.9900    13.6730    18.5690 HW2           1 RES     
    9159 OW           4.2280    33.8800    13.8510 OW            1 RES     
    9160 HW1          4.2060    33.1080    13.2160 HW1           1 RES     
    9161 HW2          3.2990    34.0890    14.1550 HW2           1 RES     
    9162 OW          23.3210    24.6650    22.7890 OW            1 RES     
    9163 HW1         23.7010    23.8990    22.2720 HW1           1 RES     
    9164 HW2         24.0590    25.2840    23.0600 HW2           1 RES     
    9165 OW           5.4620    22.5570     9.9260 OW            1 RES     
    9166 HW1          5.4290    22.7260    10.9110 HW1           1 RES     
    9167 HW2          4.6080    22.8630     9.5060 HW2           1 RES     
    9168 OW          36.6180    40.0000    13.2500 OW            1 RES     
    9169 HW1         36.9870    40.9270    13.3140 HW1           1 RES     
    9170 HW2         35.9560    39.8530    13.9850 HW2           1 RES     
    9171 OW          32.5360    36.3730    19.4920 OW            1 RES     
    9172 HW1         32.1800    35.7840    20.2170 HW1           1 RES     
    9173 HW2         33.5300    36.4480    19.5800 HW2           1 RES     
    9174 OW          15.2420    37.2730    16.9170 OW            1 RES     
    9175 HW1         14.9630    36.3140    16.9660 HW1           1 RES     
    9176 HW2         16.2290    37.3260    16.7670 HW2           1 RES     
    9177 OW          19.0570    13.4860    13.1260 OW            1 RES     
    9178 HW1         18.2770    14.1090    13.1630 HW1           1 RES     
    9179 HW2         18.7440    12.5750    12.8550 HW2           1 RES     
    9180 OW          25.5930    36.7160     5.3710 OW            1 RES     
    9181 HW1         25.0320    35.8990     5.2390 HW1           1 RES     
    9182 HW2         26.5490    36.5020     5.1670 HW2           1 RES     
    9183 OW          30.7860    13.3650    14.9980 OW            1 RES     
    9184 HW1         31.0950    12.5980    15.5580 HW1           1 RES     
    9185 HW2         29.9280    13.7230    15.3660 HW2           1 RES     
    9186 OW          39.0660     2.5010    14.4590 OW            1 RES     
    9187 HW1         38.0720     2.5110    14.5610 HW1           1 RES     
    9188 HW2         39.4520     3.3240    14.8750 HW2           1 RES     
    9189 OW           8.7670    15.5710     2.5640 OW            1 RES     
    9190 HW1          7.8210    15.5680     2.8860 HW1           1 RES     
    9191 HW2          9.1070    14.6310     2.5160 HW2           1 RES     
    9192 OW           4.1220    11.7540    10.9120 OW            1 RES     
    9193 HW1          5.0060    11.3150    10.7580 HW1           1 RES     
    9194 HW2          4.1990    12.7340    10.7310 HW2           1 RES     
    9195 OW          28.5990    18.6090     6.2220 OW            1 RES     
    9196 HW1         29.2230    19.2700     5.8080 HW1           1 RES     
    9197 HW2         27.9120    18.3300     5.5500 HW2           1 RES     
    9198 OW          25.6190    22.7750    12.8280 OW            1 RES     
    9199 HW1         25.3360    23.0670    13.7420 HW1           1 RES     
    9200 HW2         25.4130    21.8030    12.7100 HW2           1 RES     
    9201 OW          18.7450     3.4960     3.0880 OW            1 RES     
    9202 HW1         19.2300     4.3690     3.1090 HW1           1 RES     
    9203 HW2         17.9390     3.5750     2.5010 HW2           1 RES     
    9204 OW          11.7530    32.7600     7.5390 OW            1 RES     
    9205 HW1         12.7170    32.7610     7.8030 HW1           1 RES     
    9206 HW2         11.6510    32.3180     6.6480 HW2           1 RES     
    9207 OW          28.5660    13.4250     7.4030 OW            1 RES     
    9208 HW1         28.0460    14.2760     7.4620 HW1           1 RES     
    9209 HW2         29.5400    13.6200     7.5190 HW2           1 RES     
    9210 OW           5.4560     3.1000    18.1990 OW            1 RES     
    9211 HW1          5.7580     2.5000    17.4590 HW1           1 RES     
    9212 HW2          5.2100     2.5490    18.9960 HW2           1 RES     
    9213 OW          37.0340    34.1300     6.0400 OW            1 RES     
    9214 HW1         37.7420    33.4290     6.1190 HW1           1 RES     
    9215 HW2         37.2540    34.8960     6.6440 HW2           1 RES     
    9216 OW          35.5120    36.2760    10.1760 OW            1 RES     
    9217 HW1         36.2810    36.9130    10.1800 HW1           1 RES     
    9218 HW2         35.8560    35.3370    10.1980 HW2           1 RES     
    9219 OW          29.1320    31.5550    23.1930 OW            1 RES     
    9220 HW1         28.2750    31.5340    23.7070 HW1           1 RES     
    9221 HW2         29.3790    32.5040    22.9940 HW2           1 RES     
    9222 OW          35.9310     5.4190     5.2330 OW            1 RES     
    9223 HW1         35.6410     5.6470     6.1620 HW1           1 RES     
    9224 HW2         35.1730     4.9860     4.7440 HW2           1 RES     
    9225 OW          18.5440    28.8490    21.3610 OW            1 RES     
    9226 HW1         18.9930    28.6070    20.5020 HW1           1 RES     
    9227 HW2         19.0340    29.6060    21.7930 HW2           1 RES     
    9228 OW          11.0300    21.1060    19.8230 OW            1 RES     
    9229 HW1         12.0200    20.9740    19.8220 HW1           1 RES     
    9230 HW2         10.8230    22.0850    19.8240 HW2           1 RES     
    9231 OW          22.3670    19.9890    12.8980 OW            1 RES     
    9232 HW1         21.8490    19.2730    13.3650 HW1           1 RES     
    9233 HW2         23.3220    19.7050    12.8070 HW2           1 RES     
    9234 OW          10.3860    19.7100    23.8430 OW            1 RES     
    9235 HW1         10.5930    20.6560    23.5960 HW1           1 RES     
    9236 HW2          9.4040    19.6140    24.0050 HW2           1 RES     
    9237 OW          30.8160    26.5910    18.9440 OW            1 RES     
    9238 HW1         31.5200    27.3000    18.9340 HW1           1 RES     
    9239 HW2         30.0560    26.8830    19.5250 HW2           1 RES     
    9240 OW          25.7680    14.0910     3.0360 OW            1 RES     
    9241 HW1         24.8350    13.7340     3.0810 HW1           1 RES     
    9242 HW2         25.7420    15.0900     2.9980 HW2           1 RES     
    9243 OW          20.4750    29.5380    14.4510 OW            1 RES     
    9244 HW1         20.8100    28.6900    14.0410 HW1           1 RES     
    9245 HW2         19.4760    29.5180    14.4900 HW2           1 RES     
    9246 OW          27.4860    35.6930    17.9350 OW            1 RES     
    9247 HW1         27.8980    34.8000    17.7560 HW1           1 RES     
    9248 HW2         28.2080    36.3720    18.0720 HW2           1 RES     
    9249 OW           9.9450    13.4640     4.6300 OW            1 RES     
    9250 HW1         10.7060    13.3760     5.2720 HW1           1 RES     
    9251 HW2          9.8820    12.6370     4.0710 HW2           1 RES     
    9252 OW          19.3540     8.6700    18.1240 OW            1 RES     
    9253 HW1         18.9290     9.4970    17.7570 HW1           1 RES     
    9254 HW2         20.0520     8.3420    17.4870 HW2           1 RES     
    9255 OW          40.9190    35.4160     4.2730 OW            1 RES     
    9256 HW1         40.9260    36.1310     4.9710 HW1           1 RES     
    9257 HW2         40.5520    35.7860     3.4190 HW2           1 RES     
    9258 OW          19.8150    13.5560    16.2120 OW            1 RES     
    9259 HW1         20.1970    14.2170    16.8570 HW1           1 RES     
    9260 HW2         18.8400    13.4340    16.3980 HW2           1 RES     
    9261 OW          36.5300     3.2920     5.1020 OW            1 RES     
    9262 HW1         36.9950     2.9960     5.9360 HW1           1 RES     
    9263 HW2         36.3660     2.5000     4.5130 HW2           1 RES     
    9264 OW          16.0590    15.1320     5.8150 OW            1 RES     
    9265 HW1         17.0560    15.2040     5.8010 HW1           1 RES     
    9266 HW2         15.7690    14.4060     5.1910 HW2           1 RES     
    9267 OW          16.7840    34.0450    22.5060 OW            1 RES     
    9268 HW1         16.2090    33.7960    23.2840 HW1           1 RES     
    9269 HW2         16.9180    35.0370    22.4940 HW2           1 RES     
    9270 OW          40.0570    24.6780     9.2910 OW            1 RES     
    9271 HW1         40.9220    25.1210     9.0600 HW1           1 RES     
    9272 HW2         40.2220    23.7150     9.5080 HW2           1 RES     
    9273 OW           7.1040    36.0470     5.7620 OW            1 RES     
    9274 HW1          7.9440    36.1360     5.2270 HW1           1 RES     
    9275 HW2          6.7120    35.1380     5.6190 HW2           1 RES     
    9276 OW          40.9040    18.8950    14.1110 OW            1 RES     
    9277 HW1         40.2040    18.2130    13.9040 HW1           1 RES     
    9278 HW2         40.9270    19.0620    15.0970 HW2           1 RES     
    9279 OW           6.6200    29.0180    14.4980 OW            1 RES     
    9280 HW1          6.4500    28.4630    15.3110 HW1           1 RES     
    9281 HW2          7.5930    28.9870    14.2690 HW2           1 RES     
    9282 OW          38.7000    26.0810    22.1920 OW            1 RES     
    9283 HW1         39.1980    26.9440    22.1180 HW1           1 RES     
    9284 HW2         38.6690    25.7940    23.1500 HW2           1 RES     
    9285 OW          37.7850    34.0490    16.7040 OW            1 RES     
    9286 HW1         37.1200    33.4560    17.1560 HW1           1 RES     
    9287 HW2         37.5920    34.0790    15.7230 HW2           1 RES     
    9288 OW           6.8210    14.1670     4.9800 OW            1 RES     
    9289 HW1          6.7760    15.1420     5.1960 HW1           1 RES     
    9290 HW2          7.4360    13.7110     5.6240 HW2           1 RES     
    9291 OW          22.7840     9.1570    17.2630 OW            1 RES     
    9292 HW1         22.0950     8.9990    17.9690 HW1           1 RES     
    9293 HW2         22.3320     9.3490    16.3920 HW2           1 RES     
    9294 OW           6.7460    33.5730    17.3570 OW            1 RES     
    9295 HW1          7.3320    33.1640    18.0570 HW1           1 RES     
    9296 HW2          5.8980    33.0480    17.2840 HW2           1 RES     
    9297 OW          13.4530    40.2520     5.5740 OW            1 RES     
    9298 HW1         13.4710    39.7750     6.4520 HW1           1 RES     
    9299 HW2         12.8180    39.7880     4.9560 HW2           1 RES     
    9300 OW          37.8280     4.3810    11.8180 OW            1 RES     
    9301 HW1         37.4270     5.0000    12.4920 HW1           1 RES     
    9302 HW2         38.2140     3.5840    12.2840 HW2           1 RES     
    9303 OW          23.8630     8.8830    19.2730 OW            1 RES     
    9304 HW1         24.0920     7.9100    19.2880 HW1           1 RES     
    9305 HW2         24.6950     9.4190    19.1250 HW2           1 RES     
    9306 OW          15.0060    13.4870    24.0960 OW            1 RES     
    9307 HW1         15.9780    13.7200    24.0960 HW1           1 RES     
    9308 HW2         14.8990    12.5020    23.9610 HW2           1 RES     
    9309 OW          39.1670    14.1350     9.9850 OW            1 RES     
    9310 HW1         40.0830    14.1930    10.3810 HW1           1 RES     
    9311 HW2         39.2340    14.1300     8.9870 HW2           1 RES     
    9312 OW          11.8720    28.4960     4.7680 OW            1 RES     
    9313 HW1         11.6080    29.2220     4.1340 HW1           1 RES     
    9314 HW2         11.0870    27.9020     4.9420 HW2           1 RES     
    9315 OW          30.5880    21.4010    20.3040 OW            1 RES     
    9316 HW1         30.8680    20.9640    19.4500 HW1           1 RES     
    9317 HW2         29.7970    20.9190    20.6820 HW2           1 RES     
    9318 OW           8.6520    14.2510    24.1650 OW            1 RES     
    9319 HW1          7.9270    13.6300    23.8710 HW1           1 RES     
    9320 HW2          9.1150    14.6290    23.3630 HW2           1 RES     
    9321 OW          25.1880    14.3120    20.4570 OW            1 RES     
    9322 HW1         26.1060    14.6130    20.7120 HW1           1 RES     
    9323 HW2         24.5090    14.8560    20.9500 HW2           1 RES     
    9324 OW           6.1600     5.2320     5.4570 OW            1 RES     
    9325 HW1          6.2600     6.1850     5.1730 HW1           1 RES     
    9326 HW2          5.2220     5.0730     5.7650 HW2           1 RES     
    9327 OW           7.0830    32.2500    24.1620 OW            1 RES     
    9328 HW1          6.6700    33.1600    24.1700 HW1           1 RES     
    9329 HW2          6.3660    31.5590    24.0660 HW2           1 RES     
    9330 OW          37.8590    27.0230    13.6790 OW            1 RES     
    9331 HW1         36.8740    26.8720    13.7650 HW1           1 RES     
    9332 HW2         38.3420    26.1600    13.8270 HW2           1 RES     
    9333 OW          24.4430    20.1690     8.1950 OW            1 RES     
    9334 HW1         25.1500    19.4790     8.3470 HW1           1 RES     
    9335 HW2         23.6670    19.7530     7.7190 HW2           1 RES     
    9336 OW          21.7960    31.3810     7.8400 OW            1 RES     
    9337 HW1         22.5330    32.0080     8.0920 HW1           1 RES     
    9338 HW2         21.1420    31.8540     7.2500 HW2           1 RES     
    9339 OW          37.3520     7.0290     6.2760 OW            1 RES     
    9340 HW1         38.2210     7.1220     5.7910 HW1           1 RES     
    9341 HW2         37.5100     7.1000     7.2610 HW2           1 RES     
    9342 OW           5.2630     8.5970    20.7900 OW            1 RES     
    9343 HW1          4.6590     8.1240    20.1500 HW1           1 RES     
    9344 HW2          4.7250     8.9610    21.5510 HW2           1 RES     
    9345 OW           6.0040     3.6330    14.0640 OW            1 RES     
    9346 HW1          6.0620     4.3890    13.4120 HW1           1 RES     
    9347 HW2          5.7700     2.7910    13.5790 HW2           1 RES     
    9348 OW          12.4780    13.0670    22.3510 OW            1 RES     
    9349 HW1         13.4030    13.3590    22.5950 HW1           1 RES     
    9350 HW2         11.9480    13.8590    22.0450 HW2           1 RES     
    9351 OW          15.7420    11.8730    18.3430 OW            1 RES     
    9352 HW1         15.9480    11.0220    17.8620 HW1           1 RES     
    9353 HW2         15.7890    11.7200    19.3300 HW2           1 RES     
    9354 OW          31.8720    13.6820     9.8490 OW            1 RES     
    9355 HW1         31.1870    13.3030     9.2290 HW1           1 RES     
    9356 HW2         32.7060    13.1320     9.8020 HW2           1 RES     
    9357 OW          11.1730    27.6010    12.4610 OW            1 RES     
    9358 HW1         11.4500    27.4240    13.4040 HW1           1 RES     
    9359 HW2         11.9330    27.3920    11.8440 HW2           1 RES     
    9360 OW          33.5180     9.6450    14.0930 OW            1 RES     
    9361 HW1         33.4440     9.6730    15.0900 HW1           1 RES     
    9362 HW2         34.4700     9.4800    13.8340 HW2           1 RES     
    9363 OW          37.0530    19.3890     2.5300 OW            1 RES     
    9364 HW1         37.6550    20.1860     2.5360 HW1           1 RES     
    9365 HW2         36.1000    19.6900     2.5000 HW2           1 RES     
    9366 OW           7.0290     5.8920    11.1900 OW            1 RES     
    9367 HW1          6.0920     5.9160    11.5370 HW1           1 RES     
    9368 HW2          7.3410     4.9430    11.1370 HW2           1 RES     
    9369 OW          40.2960    20.3290     6.1300 OW            1 RES     
    9370 HW1         40.9270    20.0120     6.8380 HW1           1 RES     
    9371 HW2         40.6940    21.1150     5.6560 HW2           1 RES     
    9372 OW          29.8790     7.0950     3.1180 OW            1 RES     
    9373 HW1         30.7600     7.3280     3.5280 HW1           1 RES     
    9374 HW2         29.9450     6.2040     2.6690 HW2           1 RES     
    9375 OW          23.7310    18.5600     9.7550 OW            1 RES     
    9376 HW1         22.8550    18.4160     9.2960 HW1           1 RES     
    9377 HW2         23.7060    19.4220    10.2610 HW2           1 RES     
    9378 OW          34.0150    29.0190    17.7590 OW            1 RES     
    9379 HW1         33.0950    28.6690    17.5840 HW1           1 RES     
    9380 HW2         34.6870    28.3060    17.5610 HW2           1 RES     
    9381 OW          35.4940    30.1730     9.8790 OW            1 RES     
    9382 HW1         36.2860    29.5640     9.8970 HW1           1 RES     
    9383 HW2         35.8030    31.1240     9.8960 HW2           1 RES     
    9384 OW          33.7580    15.1210    13.1590 OW            1 RES     
    9385 HW1         33.8740    14.9750    14.1410 HW1           1 RES     
    9386 HW2         32.8520    14.8020    12.8780 HW2           1 RES     
    9387 OW          24.9820    14.5340     9.9130 OW            1 RES     
    9388 HW1         25.8550    15.0150     9.9860 HW1           1 RES     
    9389 HW2         24.2400    15.2000     9.8340 HW2           1 RES     
    9390 OW          31.4890     9.0710    15.9480 OW            1 RES     
    9391 HW1         31.9710     8.9870    16.8200 HW1           1 RES     
    9392 HW2         31.4520     8.1780    15.4990 HW2           1 RES     
    9393 OW          22.1120    14.5930     4.3800 OW            1 RES     
    9394 HW1         23.0650    14.5770     4.0780 HW1           1 RES     
    9395 HW2         21.8060    15.5420     4.4680 HW2           1 RES     
    9396 OW          30.1200    21.0700    14.6670 OW            1 RES     
    9397 HW1         29.5940    20.6770    15.4200 HW1           1 RES     
    9398 HW2         30.1660    22.0630    14.7740 HW2           1 RES     
    9399 OW          16.0750    30.2960    24.1700 OW            1 RES     
    9400 HW1         15.3810    31.0150    24.1500 HW1           1 RES     
    9401 HW2         16.9680    30.6860    23.9430 HW2           1 RES     
    9402 OW          33.1040    40.7090    11.0340 OW            1 RES     
    9403 HW1         33.0740    40.5580    10.0460 HW1           1 RES     
    9404 HW2         32.1870    40.9270    11.3670 HW2           1 RES     
    9405 OW          29.6610    28.3780     2.5240 OW            1 RES     
    9406 HW1         30.6120    28.6840     2.5000 HW1           1 RES     
    9407 HW2         29.0560    29.1740     2.5620 HW2           1 RES     
    9408 OW          24.4410    29.7440     5.3780 OW            1 RES     
    9409 HW1         24.7950    28.8590     5.6800 HW1           1 RES     
    9410 HW2         25.0630    30.4700     5.6730 HW2           1 RES     
    9411 OW          40.2750    11.7270     7.1210 OW            1 RES     
    9412 HW1         40.8870    12.5010     7.2770 HW1           1 RES     
    9413 HW2         40.7620    10.8730     7.3080 HW2           1 RES     
    9414 OW          13.4820    31.8610    20.5190 OW            1 RES     
    9415 HW1         13.3660    32.8430    20.6570 HW1           1 RES     
    9416 HW2         14.0710    31.4900    21.2370 HW2           1 RES     
    9417 OW          37.5120    14.7160     4.0200 OW            1 RES     
    9418 HW1         37.5820    14.3740     4.9560 HW1           1 RES     
    9419 HW2         38.4260    14.9200     3.6700 HW2           1 RES     
    9420 OW          29.0750     9.2100     3.3680 OW            1 RES     
    9421 HW1         28.7230     8.8620     2.5000 HW1           1 RES     
    9422 HW2         28.6630     8.7000     4.1240 HW2           1 RES     
    9423 OW          15.8200    24.7080     5.1190 OW            1 RES     
    9424 HW1         14.8340    24.8440     5.0310 HW1           1 RES     
    9425 HW2         16.2540    24.8260     4.2260 HW2           1 RES     
    9426 OW          23.4220    26.1700    20.2790 OW            1 RES     
    9427 HW1         23.8480    27.0700    20.1960 HW1           1 RES     
    9428 HW2         24.0100    25.5710    20.8230 HW2           1 RES     
    9429 OW          40.7180    16.2690    12.9570 OW            1 RES     
    9430 HW1         40.9260    15.3560    13.3080 HW1           1 RES     
    9431 HW2         40.9270    16.3060    11.9800 HW2           1 RES     
    9432 OW          21.0710     9.9720    13.4480 OW            1 RES     
    9433 HW1         20.8110    10.1870    14.3890 HW1           1 RES     
    9434 HW2         22.0590    10.0870    13.3400 HW2           1 RES     
    9435 OW          30.3510    10.4890    12.8450 OW            1 RES     
    9436 HW1         30.8100    10.0700    12.0630 HW1           1 RES     
    9437 HW2         30.8300    10.2390    13.6870 HW2           1 RES     
    9438 OW          36.1350    17.9250    10.5060 OW            1 RES     
    9439 HW1         36.0360    17.0040    10.1310 HW1           1 RES     
    9440 HW2         37.0840    18.0690    10.7900 HW2           1 RES     
    9441 OW          14.7560    16.6480     6.8290 OW            1 RES     
    9442 HW1         13.7790    16.8160     6.9560 HW1           1 RES     
    9443 HW2         15.0910    16.0540     7.5610 HW2           1 RES     
    9444 OW          31.3060    14.3800    23.8820 OW            1 RES     
    9445 HW1         31.2960    14.4550    22.8850 HW1           1 RES     
    9446 HW2         30.6610    13.6720    24.1700 HW2           1 RES     
    9447 OW          33.2410    23.3620    15.4670 OW            1 RES     
    9448 HW1         33.8730    22.8790    14.8630 HW1           1 RES     
    9449 HW2         32.9320    22.7440    16.1900 HW2           1 RES     
    9450 OW          30.1430    22.6020    12.2210 OW            1 RES     
    9451 HW1         30.6110    21.8210    12.6330 HW1           1 RES     
    9452 HW2         29.4900    22.2760    11.5370 HW2           1 RES     
    9453 OW           3.4590     9.8190    16.2070 OW            1 RES     
    9454 HW1          2.5220    10.1610    16.2590 HW1           1 RES     
    9455 HW2          4.0770    10.5720    15.9810 HW2           1 RES     
    9456 OW          15.0060     4.5830     2.5420 OW            1 RES     
    9457 HW1         14.0860     4.9470     2.6810 HW1           1 RES     
    9458 HW2         15.0090     3.6010     2.7360 HW2           1 RES     
    9459 OW          38.8390    19.3060    23.2500 OW            1 RES     
    9460 HW1         39.3290    18.5140    23.6140 HW1           1 RES     
    9461 HW2         38.3340    19.7540    23.9880 HW2           1 RES     
    9462 OW          35.6410    14.6740    20.5660 OW            1 RES     
    9463 HW1         35.5020    14.3070    19.6470 HW1           1 RES     
    9464 HW2         35.7030    15.6710    20.5210 HW2           1 RES     
    9465 OW          24.6190     4.9640    23.7570 OW            1 RES     
    9466 HW1         23.8170     5.3950    24.1700 HW1           1 RES     
    9467 HW2         24.9200     5.5030    22.9700 HW2           1 RES     
    9468 OW           3.7070     4.0870    12.1120 OW            1 RES     
    9469 HW1          4.3490     3.3310    11.9880 HW1           1 RES     
    9470 HW2          4.1400     4.9430    11.8290 HW2           1 RES     
    9471 OW          19.5110     7.8920     7.6900 OW            1 RES     
    9472 HW1         20.1110     7.9320     8.4880 HW1           1 RES     
    9473 HW2         18.5830     8.1520     7.9570 HW2           1 RES     
    9474 OW           7.8510    39.9830    20.3500 OW            1 RES     
    9475 HW1          8.2680    40.3960    21.1590 HW1           1 RES     
    9476 HW2          6.9200    39.6890    20.5680 HW2           1 RES     
    9477 OW          12.0480    38.4430     8.4250 OW            1 RES     
    9478 HW1         11.2370    39.0270     8.4420 HW1           1 RES     
    9479 HW2         11.9020    37.6500     9.0170 HW2           1 RES     
    9480 OW           8.8460     7.1490    23.5580 OW            1 RES     
    9481 HW1          8.4120     6.4890    24.1700 HW1           1 RES     
    9482 HW2          8.2680     7.2880    22.7530 HW2           1 RES     
    9483 OW          39.6770    39.5060    22.7080 OW            1 RES     
    9484 HW1         38.8820    39.0160    22.3520 HW1           1 RES     
    9485 HW2         40.4210    39.4660    22.0400 HW2           1 RES     
    9486 OW          14.5400     5.8610    18.2170 OW            1 RES     
    9487 HW1         13.8670     5.1510    18.4210 HW1           1 RES     
    9488 HW2         15.4590     5.4670    18.2370 HW2           1 RES     
    9489 OW          40.6300    22.2070    16.5750 OW            1 RES     
    9490 HW1         40.5800    22.6310    17.4790 HW1           1 RES     
    9491 HW2         39.7740    21.7250    16.3840 HW2           1 RES     
    9492 OW          22.0260    14.1680     9.5570 OW            1 RES     
    9493 HW1         21.3520    14.2840    10.2850 HW1           1 RES     
    9494 HW2         21.9410    13.2520     9.1640 HW2           1 RES     
    9495 OW          28.0930     3.0450    19.5810 OW            1 RES     
    9496 HW1         28.8330     2.5200    19.1610 HW1           1 RES     
    9497 HW2         28.1150     2.9180    20.5730 HW2           1 RES     
    9498 OW          28.5740    35.1330    22.4150 OW            1 RES     
    9499 HW1         27.5790    35.0390    22.4210 HW1           1 RES     
    9500 HW2         28.8180    36.1030    22.4060 HW2           1 RES     
    9501 OW           4.1620    12.9340    16.2870 OW            1 RES     
    9502 HW1          3.1760    12.9340    16.1220 HW1           1 RES     
    9503 HW2          4.4260    13.7900    16.7300 HW2           1 RES     
    9504 OW           8.9500    25.7590     4.0670 OW            1 RES     
    9505 HW1          9.8710    25.6420     3.6970 HW1           1 RES     
    9506 HW2          8.4440    24.9000     3.9800 HW2           1 RES     
    9507 OW           2.5000    30.0780    11.6280 OW            1 RES     
    9508 HW1          2.5000    29.2670    11.0430 HW1           1 RES     
    9509 HW2          3.2770    30.0350    12.2570 HW2           1 RES     
    9510 OW           2.8680    18.2730     5.7960 OW            1 RES     
    9511 HW1          2.5020    18.7250     4.9840 HW1           1 RES     
    9512 HW2          2.5700    17.3180     5.8100 HW2           1 RES     
    9513 OW           7.6360     7.2870     9.6010 OW            1 RES     
    9514 HW1          6.7600     7.7560     9.4980 HW1           1 RES     
    9515 HW2          8.3680     7.9640     9.6910 HW2           1 RES     
    9516 OW          19.5190    11.3840    15.9740 OW            1 RES     
    9517 HW1         18.6250    11.2360    16.3960 HW1           1 RES     
    9518 HW2         19.3960    11.7380    15.0470 HW2           1 RES     
    9519 OW          30.7030    35.9280    11.5680 OW            1 RES     
    9520 HW1         31.1100    36.8160    11.3570 HW1           1 RES     
    9521 HW2         29.7070    36.0150    11.5960 HW2           1 RES     
    9522 OW          31.0170     9.4610    20.5450 OW            1 RES     
    9523 HW1         31.7430    10.0760    20.2400 HW1           1 RES     
    9524 HW2         30.3690     9.9660    21.1150 HW2           1 RES     
    9525 OW          37.2720    25.1720     2.5020 OW            1 RES     
    9526 HW1         37.6680    26.0420     2.7960 HW1           1 RES     
    9527 HW2         37.9780    24.4630     2.5160 HW2           1 RES     
    9528 OW          24.7490    29.7750    13.5670 OW            1 RES     
    9529 HW1         24.7220    30.7530    13.7700 HW1           1 RES     
    9530 HW2         24.9430    29.2650    14.4050 HW2           1 RES     
    9531 OW           6.4990    23.0200    15.3810 OW            1 RES     
    9532 HW1          7.3420    23.2110    15.8830 HW1           1 RES     
    9533 HW2          6.0880    23.8790    15.0780 HW2           1 RES     
    9534 OW          32.8080    38.5930     5.5250 OW            1 RES     
    9535 HW1         32.8920    39.5740     5.6950 HW1           1 RES     
    9536 HW2         31.8420    38.3480     5.4530 HW2           1 RES     
    9537 OW          23.1460    32.1790    10.5100 OW            1 RES     
    9538 HW1         22.9790    33.0280    10.0110 HW1           1 RES     
    9539 HW2         22.2870    31.6790    10.6160 HW2           1 RES     
    9540 OW          13.7370    29.1800    10.5020 OW            1 RES     
    9541 HW1         14.0280    29.9810     9.9800 HW1           1 RES     
    9542 HW2         13.4400    29.4650    11.4140 HW2           1 RES     
    9543 OW          39.0080    24.0630    13.7810 OW            1 RES     
    9544 HW1         39.9870    24.2540    13.7240 HW1           1 RES     
    9545 HW2         38.7650    23.3580    13.1150 HW2           1 RES     
    9546 OW          36.0790     6.8840    17.9970 OW            1 RES     
    9547 HW1         36.3240     7.8510    17.9420 HW1           1 RES     
    9548 HW2         36.4320     6.4970    18.8490 HW2           1 RES     
    9549 OW          28.9580    27.4220    16.2270 OW            1 RES     
    9550 HW1         28.4330    28.2730    16.2330 HW1           1 RES     
    9551 HW2         29.9350    27.6320    16.2140 HW2           1 RES     
    9552 OW           5.5190    25.0140    22.9330 OW            1 RES     
    9553 HW1          6.1760    25.1770    23.6690 HW1           1 RES     
    9554 HW2          5.6850    24.1140    22.5300 HW2           1 RES     
    9555 OW          29.0270    39.0140     9.4740 OW            1 RES     
    9556 HW1         28.5010    38.8580     8.6390 HW1           1 RES     
    9557 HW2         28.4640    39.5090    10.1360 HW2           1 RES     
    9558 OW           5.5950    14.7290    11.4930 OW            1 RES     
    9559 HW1          5.7100    15.6750    11.1940 HW1           1 RES     
    9560 HW2          6.3840    14.4540    12.0420 HW2           1 RES     
    9561 OW          26.5450    40.6020    16.4130 OW            1 RES     
    9562 HW1         25.6630    40.9270    16.7520 HW1           1 RES     
    9563 HW2         27.2750    40.9270    17.0150 HW2           1 RES     
    9564 OW          39.9770    32.9520    16.2310 OW            1 RES     
    9565 HW1         40.9270    32.8150    16.5090 HW1           1 RES     
    9566 HW2         39.3720    32.4530    16.8520 HW2           1 RES     
    9567 OW          40.4990    33.0710    19.5200 OW            1 RES     
    9568 HW1         40.9210    32.6800    20.3370 HW1           1 RES     
    9569 HW2         40.9250    32.6790    18.7040 HW2           1 RES     
    9570 OW          20.2550    19.7240     9.4120 OW            1 RES     
    9571 HW1         21.0920    20.2640     9.4930 HW1           1 RES     
    9572 HW2         20.4680    18.8400     8.9940 HW2           1 RES     
    9573 OW          31.6320    31.6370     9.4180 OW            1 RES     
    9574 HW1         32.2520    30.8980     9.6830 HW1           1 RES     
    9575 HW2         31.8440    31.9330     8.4870 HW2           1 RES     
    9576 OW           4.7450    40.9260    21.0000 OW            1 RES     
    9577 HW1          5.4110    40.7880    21.7320 HW1           1 RES     
    9578 HW2          3.9540    40.3330    21.1510 HW2           1 RES     
    9579 OW          34.3870    36.2020     5.1160 OW            1 RES     
    9580 HW1         34.5340    37.1880     5.0380 HW1           1 RES     
    9581 HW2         35.2690    35.7310     5.1010 HW2           1 RES     
    9582 OW          32.2270    19.1420    21.0800 OW            1 RES     
    9583 HW1         31.5000    19.7240    21.4420 HW1           1 RES     
    9584 HW2         32.4260    18.4110    21.7340 HW2           1 RES     
    9585 OW          39.4420    12.2850    14.7620 OW            1 RES     
    9586 HW1         39.9930    11.5420    14.3840 HW1           1 RES     
    9587 HW2         38.6910    12.4960    14.1360 HW2           1 RES     
    9588 OW          27.7320    22.9250     2.7440 OW            1 RES     
    9589 HW1         27.7260    23.0910     3.7300 HW1           1 RES     
    9590 HW2         28.5450    22.3960     2.5000 HW2           1 RES     
    9591 OW          38.9070     2.8870    17.2980 OW            1 RES     
    9592 HW1         38.7670     2.5010    18.2090 HW1           1 RES     
    9593 HW2         39.7380     2.5010    16.8960 HW2           1 RES     
    9594 OW          29.5130    29.6210    20.7560 OW            1 RES     
    9595 HW1         28.7500    28.9830    20.6660 HW1           1 RES     
    9596 HW2         29.1690    30.5600    20.7300 HW2           1 RES     
    9597 OW          40.3560    24.9940     2.6750 OW            1 RES     
    9598 HW1         40.9270    25.7960     2.5000 HW1           1 RES     
    9599 HW2         40.9270    24.1730     2.6850 HW2           1 RES     
    9600 OW          20.1770    17.2480     3.6620 OW            1 RES     
    9601 HW1         21.0540    17.4960     3.2510 HW1           1 RES     
    9602 HW2         19.8780    16.3630     3.3040 HW2           1 RES     
    9603 OW          24.2580    11.5040    17.3650 OW            1 RES     
    9604 HW1         23.4610    11.1630    17.8620 HW1           1 RES     
    9605 HW2         23.9670    11.8850    16.4880 HW2           1 RES     
    9606 OW          40.9270    37.0620    11.8040 OW            1 RES     
    9607 HW1         40.0930    37.3090    12.2960 HW1           1 RES     
    9608 HW2         40.9240    36.0810    11.6130 HW2           1 RES     
    9609 OW           2.5040    14.3150    11.4710 OW            1 RES     
    9610 HW1          2.5000    15.3050    11.6060 HW1           1 RES     
    9611 HW2          2.5000    14.1110    10.4910 HW2           1 RES     
    9612 OW          11.4710    34.5970    24.1350 OW            1 RES     
    9613 HW1         10.9250    35.4330    24.1680 HW1           1 RES     
    9614 HW2         12.4380    34.8320    24.0330 HW2           1 RES     
    9615 OW          30.3690    12.6730    12.3910 OW            1 RES     
    9616 HW1         29.5330    13.2210    12.4050 HW1           1 RES     
    9617 HW2         31.1650    13.2790    12.4010 HW2           1 RES     
    9618 OW          19.1220    34.3410    21.6030 OW            1 RES     
    9619 HW1         18.6270    34.3780    20.7360 HW1           1 RES     
    9620 HW2         18.8880    33.4960    22.0850 HW2           1 RES     
    9621 OW          13.9280    18.2860    17.5380 OW            1 RES     
    9622 HW1         13.4200    17.4450    17.3560 HW1           1 RES     
    9623 HW2         14.0470    18.3980    18.5240 HW2           1 RES     
    9624 OW          19.7360    22.7430    10.3260 OW            1 RES     
    9625 HW1         20.5590    23.3080    10.3650 HW1           1 RES     
    9626 HW2         19.2290    22.8330    11.1840 HW2           1 RES     
    9627 OW          27.3010    29.6670     6.9350 OW            1 RES     
    9628 HW1         26.8250    28.8890     6.5260 HW1           1 RES     
    9629 HW2         26.6550    30.2100     7.4710 HW2           1 RES     
    9630 OW          34.1240    40.9220    21.4920 OW            1 RES     
    9631 HW1         33.2790    40.9270    22.0260 HW1           1 RES     
    9632 HW2         33.9040    40.8590    20.5190 HW2           1 RES     
    9633 OW          28.6020     7.2660    17.9250 OW            1 RES     
    9634 HW1         27.8140     7.2350    17.3110 HW1           1 RES     
    9635 HW2         29.4200     6.9700    17.4320 HW2           1 RES     
    9636 OW          11.4920    32.6870    19.3250 OW            1 RES     
    9637 HW1         10.9000    31.8870    19.4180 HW1           1 RES     
    9638 HW2         10.9590    33.5170    19.4870 HW2           1 RES     
    9639 OW          12.6600    17.0590    11.0480 OW            1 RES     
    9640 HW1         12.4890    16.6010    11.9200 HW1           1 RES     
    9641 HW2         13.6380    17.2510    10.9580 HW2           1 RES     
    9642 OW          38.6550    18.5950    16.6200 OW            1 RES     
    9643 HW1         38.8680    19.2070    15.8590 HW1           1 RES     
    9644 HW2         38.2580    17.7480    16.2660 HW2           1 RES     
    9645 OW          29.4920    26.2330    23.6890 OW            1 RES     
    9646 HW1         28.5550    25.9190    23.8420 HW1           1 RES     
    9647 HW2         30.1120    25.4490    23.6970 HW2           1 RES     
    9648 OW          27.1640    10.3700    17.9250 OW            1 RES     
    9649 HW1         27.3350     9.3860    17.9130 HW1           1 RES     
    9650 HW2         26.1780    10.5380    17.8960 HW2           1 RES     
    9651 OW           4.0550    13.0910    13.2590 OW            1 RES     
    9652 HW1          3.8220    14.0610    13.2150 HW1           1 RES     
    9653 HW2          3.2160    12.5460    13.2650 HW2           1 RES     
    9654 OW          32.5420     7.2140    18.8680 OW            1 RES     
    9655 HW1         31.9550     8.0230    18.8440 HW1           1 RES     
    9656 HW2         33.4870     7.4820    18.6780 HW2           1 RES     
    9657 OW          19.1840     3.4600     7.6770 OW            1 RES     
    9658 HW1         18.6570     4.2170     8.0620 HW1           1 RES     
    9659 HW2         18.6240     2.6310     7.6750 HW2           1 RES     
    9660 OW          37.6530    32.2480    20.0170 OW            1 RES     
    9661 HW1         37.2570    32.9230    19.3950 HW1           1 RES     
    9662 HW2         38.5780    32.0170    19.7150 HW2           1 RES     
    9663 OW          16.2480    19.6350    22.1320 OW            1 RES     
    9664 HW1         17.1780    19.8830    21.8640 HW1           1 RES     
    9665 HW2         15.6710    20.4520    22.1320 HW2           1 RES     
    9666 OW           2.7320    32.0680    10.7150 OW            1 RES     
    9667 HW1          2.9610    32.7610    10.0320 HW1           1 RES     
    9668 HW2          3.4210    32.0730    11.4400 HW2           1 RES     
    9669 OW          23.1340    37.3130    18.3220 OW            1 RES     
    9670 HW1         23.8740    37.7520    17.8150 HW1           1 RES     
    9671 HW2         22.2590    37.5240    17.8860 HW2           1 RES     
    9672 OW          35.9660     3.4460    13.0290 OW            1 RES     
    9673 HW1         35.7340     2.5000    13.2540 HW1           1 RES     
    9674 HW2         35.8590     4.0190    13.8420 HW2           1 RES     
    9675 OW          37.8330     9.1880     9.8690 OW            1 RES     
    9676 HW1         38.0630     9.8890     9.1950 HW1           1 RES     
    9677 HW2         38.6650     8.8860    10.3350 HW2           1 RES     
    9678 OW          18.7350    34.7830     5.8660 OW            1 RES     
    9679 HW1         19.1760    35.6510     6.0930 HW1           1 RES     
    9680 HW2         18.0620    34.9300     5.1410 HW2           1 RES     
    9681 OW          40.3550    22.1230    12.2270 OW            1 RES     
    9682 HW1         40.9270    21.3170    12.3720 HW1           1 RES     
    9683 HW2         40.9270    22.9430    12.2280 HW2           1 RES     
    9684 OW          28.0850    15.9230    18.2000 OW            1 RES     
    9685 HW1         27.3610    16.5350    17.8810 HW1           1 RES     
    9686 HW2         28.4050    16.2240    19.0980 HW2           1 RES     
    9687 OW          38.4000    35.1980     4.6870 OW            1 RES     
    9688 HW1         39.0700    35.0340     5.4100 HW1           1 RES     
    9689 HW2         38.3600    36.1770     4.4850 HW2           1 RES     
    9690 OW          12.8890    30.5440     6.2490 OW            1 RES     
    9691 HW1         13.3180    29.7140     5.8940 HW1           1 RES     
    9692 HW2         13.2000    30.7050     7.1860 HW2           1 RES     
    9693 OW          13.5690    12.5470    12.9050 OW            1 RES     
    9694 HW1         13.8050    11.8590    13.5890 HW1           1 RES     
    9695 HW2         14.3940    13.0410    12.6280 HW2           1 RES     
    9696 OW          26.7110    22.8660    10.9210 OW            1 RES     
    9697 HW1         27.0830    23.6400    11.4310 HW1           1 RES     
    9698 HW2         27.4040    22.1490    10.8470 HW2           1 RES     
    9699 OW           7.3730    27.4430    19.2140 OW            1 RES     
    9700 HW1          7.2100    28.2230    18.6110 HW1           1 RES     
    9701 HW2          6.6590    26.7560    19.0730 HW2           1 RES     
    9702 OW          19.8020    31.2410    16.3030 OW            1 RES     
    9703 HW1         19.4070    30.3980    16.6670 HW1           1 RES     
    9704 HW2         19.3230    31.4980    15.4640 HW2           1 RES     
    9705 OW          14.2950    14.2330     9.0990 OW            1 RES     
    9706 HW1         13.6790    14.4390     8.3400 HW1           1 RES     
    9707 HW2         14.5800    15.0850     9.5390 HW2           1 RES     
    9708 OW          34.6660    28.6020    24.0090 OW            1 RES     
    9709 HW1         35.0740    28.7480    23.1090 HW1           1 RES     
    9710 HW2         33.9550    29.2870    24.1690 HW2           1 RES     
    9711 OW          33.7670    10.8480     3.9260 OW            1 RES     
    9712 HW1         33.4780    11.7890     3.7560 HW1           1 RES     
    9713 HW2         33.7350    10.6600     4.9080 HW2           1 RES     
    9714 OW          27.7600     4.5100    22.0480 OW            1 RES     
    9715 HW1         28.4320     5.2480    21.9980 HW1           1 RES     
    9716 HW2         26.8390     4.8990    22.0810 HW2           1 RES     
    9717 OW          35.9080     9.2400    15.4810 OW            1 RES     
    9718 HW1         35.6080     9.4380    16.4130 HW1           1 RES     
    9719 HW2         36.4840     8.4230    15.4830 HW2           1 RES     
    9720 OW           3.4740    26.9480    23.8950 OW            1 RES     
    9721 HW1          3.6920    26.1870    23.2850 HW1           1 RES     
    9722 HW2          2.5000    26.9250    24.1230 HW2           1 RES     
    9723 OW          17.9260    13.4870     9.1860 OW            1 RES     
    9724 HW1         18.3630    14.1250     8.5520 HW1           1 RES     
    9725 HW2         17.8870    13.8960    10.0980 HW2           1 RES     
    9726 OW           5.5890    23.3050     4.8140 OW            1 RES     
    9727 HW1          6.2560    24.0500     4.8250 HW1           1 RES     
    9728 HW2          6.0690    22.4280     4.8510 HW2           1 RES     
    9729 OW          32.5480    10.9550    22.0890 OW            1 RES     
    9730 HW1         31.8520    11.6710    22.1320 HW1           1 RES     
    9731 HW2         33.4540    11.3730    22.0270 HW2           1 RES     
    9732 OW          36.1190    18.5880     4.4040 OW            1 RES     
    9733 HW1         35.1590    18.7840     4.5980 HW1           1 RES     
    9734 HW2         36.1830    17.7800     3.8180 HW2           1 RES     
    9735 OW          37.7530    30.3030     3.3450 OW            1 RES     
    9736 HW1         38.3570    30.9460     3.8140 HW1           1 RES     
    9737 HW2         38.1300    29.3790     3.4150 HW2           1 RES     
    9738 OW          10.9230    10.3760    15.4590 OW            1 RES     
    9739 HW1         11.1770     9.4100    15.4420 HW1           1 RES     
    9740 HW2         11.7500    10.9380    15.4900 HW2           1 RES     
    9741 OW           2.5000    17.7230    13.0710 OW            1 RES     
    9742 HW1          2.5910    18.5370    13.6430 HW1           1 RES     
    9743 HW2          2.8020    16.9190    13.5840 HW2           1 RES     
    9744 OW           3.0750    20.0400    11.5320 OW            1 RES     
    9745 HW1          2.5000    20.8420    11.6900 HW1           1 RES     
    9746 HW2          2.5000    19.2250    11.4630 HW2           1 RES     
    9747 OW          37.9160     8.0120    13.2530 OW            1 RES     
    9748 HW1         38.8730     7.9320    13.5320 HW1           1 RES     
    9749 HW2         37.8700     8.2200    12.2750 HW2           1 RES     
    9750 OW          18.4400    14.8450    18.0380 OW            1 RES     
    9751 HW1         18.4180    15.7580    18.4430 HW1           1 RES     
    9752 HW2         17.5240    14.5970    17.7230 HW2           1 RES     
    9753 OW          40.7310    16.9130    16.1500 OW            1 RES     
    9754 HW1         40.0210    16.6910    15.4830 HW1           1 RES     
    9755 HW2         40.3050    17.1910    17.0110 HW2           1 RES     
    9756 OW           7.5330    29.4140    21.1390 OW            1 RES     
    9757 HW1          7.8730    28.5000    21.3580 HW1           1 RES     
    9758 HW2          6.7660    29.3400    20.5010 HW2           1 RES     
    9759 OW          21.3960     2.7840     7.4040 OW            1 RES     
    9760 HW1         22.3510     2.5000     7.3280 HW1           1 RES     
    9761 HW2         21.3440     3.7830     7.4150 HW2           1 RES     
    9762 OW          36.5850    15.9070    15.6440 OW            1 RES     
    9763 HW1         36.6000    16.7920    15.1800 HW1           1 RES     
    9764 HW2         36.0150    15.2680    15.1260 HW2           1 RES     
    9765 OW          20.2860    37.6520     6.8270 OW            1 RES     
    9766 HW1         21.2430    37.5690     7.1050 HW1           1 RES     
    9767 HW2         20.1190    38.5740     6.4780 HW2           1 RES     
    9768 OW          17.1620    11.9400    23.5780 OW            1 RES     
    9769 HW1         17.9660    11.9000    24.1700 HW1           1 RES     
    9770 HW2         16.7260    11.0400    23.5470 HW2           1 RES     
    9771 OW          21.3110    16.2220     9.2220 OW            1 RES     
    9772 HW1         22.1240    16.3980     9.7760 HW1           1 RES     
    9773 HW2         21.5860    15.9890     8.2890 HW2           1 RES     
    9774 OW          12.1890     9.4390     4.9260 OW            1 RES     
    9775 HW1         12.8470     9.0210     4.3010 HW1           1 RES     
    9776 HW2         11.5570     8.7390     5.2620 HW2           1 RES     
    9777 OW          14.6790     7.4050     5.0100 OW            1 RES     
    9778 HW1         14.2230     6.6980     4.4700 HW1           1 RES     
    9779 HW2         14.8610     7.0560     5.9300 HW2           1 RES     
    9780 OW          39.4600    39.1160    19.9460 OW            1 RES     
    9781 HW1         40.3410    39.0900    19.4760 HW1           1 RES     
    9782 HW2         38.8550    38.4180    19.5620 HW2           1 RES     
    9783 OW           7.3020    17.7850    16.0200 OW            1 RES     
    9784 HW1          8.1970    18.2310    16.0280 HW1           1 RES     
    9785 HW2          6.5900    18.4620    16.2090 HW2           1 RES     
    9786 OW          15.4730     3.2000    17.7190 OW            1 RES     
    9787 HW1         16.2570     3.6470    17.2900 HW1           1 RES     
    9788 HW2         15.5220     3.3190    18.7110 HW2           1 RES     
    9789 OW          36.3470    13.9330    17.6500 OW            1 RES     
    9790 HW1         37.1590    14.2350    18.1490 HW1           1 RES     
    9791 HW2         35.8290    14.7320    17.3430 HW2           1 RES     
    9792 OW          25.5570    28.3690    20.7330 OW            1 RES     
    9793 HW1         26.5510    28.3280    20.6350 HW1           1 RES     
    9794 HW2         25.2710    29.3220    20.8310 HW2           1 RES     
    9795 OW          23.2470    29.7410    10.2140 OW            1 RES     
    9796 HW1         24.2420    29.8070    10.1450 HW1           1 RES     
    9797 HW2         22.9790    28.7780    10.2610 HW2           1 RES     
    9798 OW           3.4270    31.6980    17.9120 OW            1 RES     
    9799 HW1          2.8690    30.9550    18.2790 HW1           1 RES     
    9800 HW2          2.8790    32.5330    17.8610 HW2           1 RES     
    9801 OW          30.5240    29.5230    17.3020 OW            1 RES     
    9802 HW1         29.6200    29.9030    17.1130 HW1           1 RES     
    9803 HW2         30.9460    30.0240    18.0580 HW2           1 RES     
    9804 OW           8.3580    36.4310     3.0860 OW            1 RES     
    9805 HW1          7.6690    35.7070     3.0760 HW1           1 RES     
    9806 HW2          7.9060    37.3230     3.0560 HW2           1 RES     
    9807 OW          11.4370    20.4570    13.4210 OW            1 RES     
    9808 HW1         11.6510    19.7060    12.7970 HW1           1 RES     
    9809 HW2         12.0870    20.4540    14.1810 HW2           1 RES     
    9810 OW          23.0200    36.0430     8.7250 OW            1 RES     
    9811 HW1         22.8710    37.0210     8.5800 HW1           1 RES     
    9812 HW2         23.9560    35.8060     8.4640 HW2           1 RES     
    9813 OW           8.0570    10.2860    19.4460 OW            1 RES     
    9814 HW1          7.6820     9.3590    19.4700 HW1           1 RES     
    9815 HW2          9.0420    10.2430    19.2780 HW2           1 RES     
    9816 OW          14.5820    13.5970    15.0410 OW            1 RES     
    9817 HW1         14.4700    14.3400    15.7010 HW1           1 RES     
    9818 HW2         15.3680    13.7890    14.4530 HW2           1 RES     
    9819 OW          25.4750    28.6240    17.0960 OW            1 RES     
    9820 HW1         24.8120    27.8780    17.0420 HW1           1 RES     
    9821 HW2         26.3970    28.2460    17.1820 HW2           1 RES     
    9822 OW          21.1550    17.5170    24.1680 OW            1 RES     
    9823 HW1         21.1200    18.5150    24.1690 HW1           1 RES     
    9824 HW2         22.1090    17.2160    24.1630 HW2           1 RES     
    9825 OW          16.9350    36.8920     7.7960 OW            1 RES     
    9826 HW1         17.8470    36.4960     7.8960 HW1           1 RES     
    9827 HW2         16.9720    37.6560     7.1520 HW2           1 RES     
    9828 OW          14.6720    26.5310    24.1700 OW            1 RES     
    9829 HW1         15.2950    27.3090    24.0990 HW1           1 RES     
    9830 HW2         14.5860    26.0900    23.2760 HW2           1 RES     
    9831 OW           4.2610    31.0110    23.7370 OW            1 RES     
    9832 HW1          3.2970    30.8610    23.5210 HW1           1 RES     
    9833 HW2          4.6870    30.1400    23.9800 HW2           1 RES     
    9834 OW          30.5980    17.1000     4.3270 OW            1 RES     
    9835 HW1         30.7840    17.5860     3.4730 HW1           1 RES     
    9836 HW2         29.7380    17.4290     4.7180 HW2           1 RES     
    9837 OW           6.1620    33.8740    11.4220 OW            1 RES     
    9838 HW1          6.6370    34.3780    10.7000 HW1           1 RES     
    9839 HW2          6.8340    33.4450    12.0260 HW2           1 RES     
    9840 OW          24.8110     3.3400    13.0680 OW            1 RES     
    9841 HW1         25.3340     4.0680    13.5100 HW1           1 RES     
    9842 HW2         25.3990     2.5430    12.9300 HW2           1 RES     
    9843 OW          19.7600    31.7980    13.3280 OW            1 RES     
    9844 HW1         19.6140    31.4080    12.4200 HW1           1 RES     
    9845 HW2         19.8210    32.7940    13.2580 HW2           1 RES     
    9846 OW          37.5500    35.1220    21.4890 OW            1 RES     
    9847 HW1         38.0950    34.8880    20.6850 HW1           1 RES     
    9848 HW2         37.3100    36.0930    21.4580 HW2           1 RES     
    9849 OW          25.2740    32.2930    19.9740 OW            1 RES     
    9850 HW1         24.6330    32.9250    19.5400 HW1           1 RES     
    9851 HW2         24.9060    31.9970    20.8560 HW2           1 RES     
    9852 OW          24.3320    17.3100     8.0470 OW            1 RES     
    9853 HW1         25.2330    17.1450     8.4460 HW1           1 RES     
    9854 HW2         23.7870    16.4720     8.0960 HW2           1 RES     
    9855 OW          12.7830    17.4160     8.8240 OW            1 RES     
    9856 HW1         12.9460    16.4380     8.9570 HW1           1 RES     
    9857 HW2         11.7990    17.5890     8.7910 HW2           1 RES     
    9858 OW          39.7780    40.1410     2.7970 OW            1 RES     
    9859 HW1         40.7480    40.1500     2.5560 HW1           1 RES     
    9860 HW2         39.5720    40.9270     3.3810 HW2           1 RES     
    9861 OW          25.0170    32.4790     9.3890 OW            1 RES     
    9862 HW1         25.6910    33.2000     9.2300 HW1           1 RES     
    9863 HW2         25.4060    31.5950     9.1290 HW2           1 RES     
    9864 OW          23.1490    16.6540     5.8100 OW            1 RES     
    9865 HW1         24.1460    16.6570     5.7370 HW1           1 RES     
    9866 HW2         22.8060    17.5910     5.7470 HW2           1 RES     
    9867 OW          25.8360     2.9830    19.8970 OW            1 RES     
    9868 HW1         25.7630     3.9790    19.8630 HW1           1 RES     
    9869 HW2         25.9440     2.6880    20.8460 HW2           1 RES     
    9870 OW          22.8920     3.7480    12.0720 OW            1 RES     
    9871 HW1         22.4500     4.5670    11.7080 HW1           1 RES     
    9872 HW2         22.7630     2.9880    11.4350 HW2           1 RES     
    9873 OW          29.4180    24.1310    14.8500 OW            1 RES     
    9874 HW1         28.4440    23.9920    15.0270 HW1           1 RES     
    9875 HW2         29.5630    25.0520    14.4900 HW2           1 RES     
    9876 OW          38.7500    31.6440    21.9900 OW            1 RES     
    9877 HW1         38.5320    32.6090    22.1340 HW1           1 RES     
    9878 HW2         39.7420    31.5300    21.9340 HW2           1 RES     
    9879 OW          21.6780    25.9760    13.2740 OW            1 RES     
    9880 HW1         21.7620    26.3700    12.3600 HW1           1 RES     
    9881 HW2         21.6360    24.9790    13.2050 HW2           1 RES     
    9882 OW           4.9950    40.7370     8.1590 OW            1 RES     
    9883 HW1          5.7460    40.5960     8.8020 HW1           1 RES     
    9884 HW2          4.5490    39.8630     7.9680 HW2           1 RES     
    9885 OW          34.9550    19.0680    20.5880 OW            1 RES     
    9886 HW1         35.8240    19.0210    21.0800 HW1           1 RES     
    9887 HW2         35.1110    19.4370    19.6710 HW2           1 RES     
    9888 OW          22.1200    22.9980     6.9190 OW            1 RES     
    9889 HW1         21.9630    22.0120     6.8650 HW1           1 RES     
    9890 HW2         21.2420    23.4740     6.9690 HW2           1 RES     
    9891 OW          13.9460    18.3380    21.0570 OW            1 RES     
    9892 HW1         13.7740    17.3640    21.2000 HW1           1 RES     
    9893 HW2         14.8190    18.4570    20.5840 HW2           1 RES     
    9894 OW          33.3260    24.0710    19.9910 OW            1 RES     
    9895 HW1         34.0250    23.3680    19.8650 HW1           1 RES     
    9896 HW2         32.4320    23.6370    20.1030 HW2           1 RES     
    9897 OW           8.2590    12.2900    18.4800 OW            1 RES     
    9898 HW1          7.8560    12.8290    19.2180 HW1           1 RES     
    9899 HW2          9.2100    12.5680    18.3440 HW2           1 RES     
    9900 OW          39.0720     6.9430     9.1570 OW            1 RES     
    9901 HW1         39.7480     6.2140     9.0600 HW1           1 RES     
    9902 HW2         38.1650     6.5410     9.2860 HW2           1 RES     
    9903 OW           4.6690    26.2920     6.2390 OW            1 RES     
    9904 HW1          4.3900    25.7540     5.4440 HW1           1 RES     
    9905 HW2          5.0030    27.1850     5.9360 HW2           1 RES     
    9906 OW          40.5960    12.0360    12.2780 OW            1 RES     
    9907 HW1         40.9270    12.9570    12.0740 HW1           1 RES     
    9908 HW2         40.1390    11.6590    11.4720 HW2           1 RES     
    9909 OW           2.5010     4.6430    15.4360 OW            1 RES     
    9910 HW1          2.7590     5.3480    16.0960 HW1           1 RES     
    9911 HW2          2.6340     4.9910    14.5080 HW2           1 RES     
    9912 OW           4.0250    30.2010     6.7170 OW            1 RES     
    9913 HW1          4.1210    31.1840     6.5630 HW1           1 RES     
    9914 HW2          4.4980    29.7020     5.9900 HW2           1 RES     
    9915 OW          18.6350    24.0810    21.3570 OW            1 RES     
    9916 HW1         17.9110    24.4330    20.7650 HW1           1 RES     
    9917 HW2         19.5200    24.1920    20.9040 HW2           1 RES     
    9918 OW          35.2380    25.0560    21.6910 OW            1 RES     
    9919 HW1         34.6980    24.2260    21.8270 HW1           1 RES     
    9920 HW2         36.1980    24.8120    21.5560 HW2           1 RES     
    9921 OW          17.0970     6.7760     7.0850 OW            1 RES     
    9922 HW1         17.7850     6.1430     7.4360 HW1           1 RES     
    9923 HW2         17.1400     6.7960     6.0860 HW2           1 RES     
    9924 OW          36.5650    12.1360    18.9000 OW            1 RES     
    9925 HW1         35.7680    12.0630    19.4990 HW1           1 RES     
    9926 HW2         37.3830    11.8470    19.3970 HW2           1 RES     
    9927 OW          30.2780    13.1320     5.3100 OW            1 RES     
    9928 HW1         31.1740    13.5660     5.2220 HW1           1 RES     
    9929 HW2         30.3480    12.3430     5.9200 HW2           1 RES     
    9930 OW          21.2850     4.3100     9.8600 OW            1 RES     
    9931 HW1         21.7130     3.4580     9.5600 HW1           1 RES     
    9932 HW2         20.3780     4.3920     9.4450 HW2           1 RES     
    9933 OW          23.7960    22.1640    17.4230 OW            1 RES     
    9934 HW1         22.9000    22.3420    17.0180 HW1           1 RES     
    9935 HW2         23.7530    21.3300    17.9740 HW2           1 RES     
    9936 OW          10.7480    17.2770    24.1400 OW            1 RES     
    9937 HW1         11.6390    17.7290    24.1700 HW1           1 RES     
    9938 HW2         10.7170    16.6520    23.3600 HW2           1 RES     
    9939 OW          33.5260    28.7320    11.7940 OW            1 RES     
    9940 HW1         32.8280    29.4480    11.7900 HW1           1 RES     
    9941 HW2         34.3900    29.1060    11.4550 HW2           1 RES     
    9942 OW          18.2820    28.6670    23.6350 OW            1 RES     
    9943 HW1         18.7470    27.7830    23.6020 HW1           1 RES     
    9944 HW2         17.2920    28.5240    23.6150 HW2           1 RES     
    9945 OW          16.8900    26.7630    19.2900 OW            1 RES     
    9946 HW1         17.4310    27.4370    18.7880 HW1           1 RES     
    9947 HW2         17.3710    26.5070    20.1290 HW2           1 RES     
    9948 OW          27.4790    31.5670    13.4810 OW            1 RES     
    9949 HW1         28.2830    30.9980    13.6460 HW1           1 RES     
    9950 HW2         27.7290    32.5310    13.5650 HW2           1 RES     
    9951 OW          33.4590    33.6240    20.3430 OW            1 RES     
    9952 HW1         32.5630    33.6910    20.7800 HW1           1 RES     
    9953 HW2         33.9730    34.4660    20.5040 HW2           1 RES     
    9954 OW          34.7590    34.9920    22.7010 OW            1 RES     
    9955 HW1         35.1670    35.8260    22.3320 HW1           1 RES     
    9956 HW2         33.8350    35.1880    23.0270 HW2           1 RES     
    9957 OW          40.2930    33.9750     6.9020 OW            1 RES     
    9958 HW1         40.8080    34.0290     7.7570 HW1           1 RES     
    9959 HW2         40.9270    33.9960     6.1280 HW2           1 RES     
    9960 OW          15.1410    34.3230    15.9560 OW            1 RES     
    9961 HW1         15.0870    33.4030    15.5710 HW1           1 RES     
    9962 HW2         15.8050    34.8630    15.4370 HW2           1 RES     
    9963 OW          15.9400     2.5010     9.9050 OW            1 RES     
    9964 HW1         16.0410     2.5450    10.8980 HW1           1 RES     
    9965 HW2         14.9680     2.5070     9.6680 HW2           1 RES     
    9966 OW          40.9270    14.7160     6.5420 OW            1 RES     
    9967 HW1         40.1740    14.2510     6.0760 HW1           1 RES     
    9968 HW2         40.6920    14.8500     7.5050 HW2           1 RES     
    9969 OW          21.8010    35.3670    21.9280 OW            1 RES     
    9970 HW1         21.2870    34.6800    21.4140 HW1           1 RES     
    9971 HW2         22.6180    35.6270    21.4130 HW2           1 RES     
    9972 OW          29.4660    10.0630    17.1890 OW            1 RES     
    9973 HW1         29.6670     9.1550    17.5530 HW1           1 RES     
    9974 HW2         29.2590     9.9930    16.2130 HW2           1 RES     
    9975 OW          24.0390     7.6010     4.7280 OW            1 RES     
    9976 HW1         24.9270     7.7730     5.1520 HW1           1 RES     
    9977 HW2         24.1130     6.8260     4.1000 HW2           1 RES     
    9978 OW          40.1850    31.9250     6.1110 OW            1 RES     
    9979 HW1         39.5790    31.9880     5.3190 HW1           1 RES     
    9980 HW2         39.9130    31.1470     6.6780 HW2           1 RES     
    9981 OW           7.3850    39.4750     4.2440 OW            1 RES     
    9982 HW1          7.7340    39.7980     5.1230 HW1           1 RES     
    9983 HW2          7.1680    40.2590     3.6620 HW2           1 RES     
    9984 OW          25.0710    10.5940     7.6870 OW            1 RES     
    9985 HW1         24.8050     9.6830     8.0010 HW1           1 RES     
    9986 HW2         24.6840    10.7600     6.7800 HW2           1 RES     
    9987 OW          31.7730    10.1900     7.2610 OW            1 RES     
    9988 HW1         32.2950     9.3830     6.9890 HW1           1 RES     
    9989 HW2         30.8010    10.0360     7.0780 HW2           1 RES     
    9990 OW          12.6120    36.2020    19.7750 OW            1 RES     
    9991 HW1         12.2330    35.3040    19.9960 HW1           1 RES     
    9992 HW2         12.7300    36.2810    18.7850 HW2           1 RES     
    9993 OW          31.9720    25.0940    21.7320 OW            1 RES     
    9994 HW1         31.8970    24.6840    22.6400 HW1           1 RES     
    9995 HW2         31.0730    25.1030    21.2930 HW2           1 RES     
    9996 OW          10.1460    12.3880     8.0900 OW            1 RES     
    9997 HW1          9.7290    13.2020     8.4930 HW1           1 RES     
    9998 HW2         10.9570    12.1330     8.6170 HW2           1 RES     
    9999 OW          24.2100    18.7610    14.7840 OW            1 RES     
   10000 HW1         23.6680    18.8560    15.6180 HW1           1 RES     
   10001 HW2         23.8020    18.0620    14.1970 HW2           1 RES     
   10002 OW          21.4720    11.4790    20.5270 OW            1 RES     
   10003 HW1         22.1760    11.0870    21.1180 HW1           1 RES     
   10004 HW2         20.9400    10.7430    20.1080 HW2           1 RES     
   10005 OW          14.1910     9.0730    17.5270 OW            1 RES     
   10006 HW1         15.0160     8.5150    17.6070 HW1           1 RES     
   10007 HW2         13.4080     8.5640    17.8850 HW2           1 RES     
   10008 OW          35.8650     9.4750    23.7140 OW            1 RES     
   10009 HW1         34.8700     9.5160    23.6250 HW1           1 RES     
   10010 HW2         36.2350     8.8380    23.0380 HW2           1 RES     
   10011 OW           5.4630    36.4900    14.3570 OW            1 RES     
   10012 HW1          5.0880    35.6720    14.7930 HW1           1 RES     
   10013 HW2          6.4290    36.5830    14.5980 HW2           1 RES     
   10014 OW          18.8140    25.1170    10.1890 OW            1 RES     
   10015 HW1         18.5660    25.7650    10.9090 HW1           1 RES     
   10016 HW2         17.9910    24.6550     9.8580 HW2           1 RES     
   10017 OW          10.0760    24.9550     5.7780 OW            1 RES     
   10018 HW1         10.7120    24.2880     5.3910 HW1           1 RES     
   10019 HW2         10.5060    25.8580     5.7930 HW2           1 RES     
   10020 OW          21.1780    11.5840    17.9450 OW            1 RES     
   10021 HW1         21.2380    12.1450    17.1200 HW1           1 RES     
   10022 HW2         20.2460    11.2360    18.0450 HW2           1 RES     
   10023 OW           8.9910     3.7410    21.1660 OW            1 RES     
   10024 HW1          8.3530     2.9730    21.2140 HW1           1 RES     
   10025 HW2          9.9140     3.3970    20.9960 HW2           1 RES     
   10026 OW          21.5180    11.4840    10.9460 OW            1 RES     
   10027 HW1         22.2620    10.8880    10.6450 HW1           1 RES     
   10028 HW2         21.8840    12.2000    11.5410 HW2           1 RES     
   10029 OW          24.4980    34.2440     6.5850 OW            1 RES     
   10030 HW1         23.5690    34.0410     6.8940 HW1           1 RES     
   10031 HW2         25.1220    34.2210     7.3660 HW2           1 RES     
   10032 OW          39.5010    26.0540     6.9430 OW            1 RES     
   10033 HW1         39.0020    25.3890     7.4970 HW1           1 RES     
   10034 HW2         40.2000    26.4980     7.5040 HW2           1 RES     
   10035 OW          22.9230     7.6400    15.1400 OW            1 RES     
   10036 HW1         22.0750     7.3270    15.5660 HW1           1 RES     
   10037 HW2         22.7790     7.7570    14.1570 HW2           1 RES     
   10038 OW          12.9060    38.3900    18.1830 OW            1 RES     
   10039 HW1         12.5550    39.0840    17.5560 HW1           1 RES     
   10040 HW2         12.4430    38.4730    19.0660 HW2           1 RES     
   10041 OW           3.3010    10.9100     8.7330 OW            1 RES     
   10042 HW1          2.5010    10.3400     8.5480 HW1           1 RES     
   10043 HW2          3.1740    11.8090     8.3150 HW2           1 RES     
   10044 OW          37.7090    27.3090    20.4780 OW            1 RES     
   10045 HW1         37.2710    26.4190    20.3580 HW1           1 RES     
   10046 HW2         37.4810    27.9010    19.7040 HW2           1 RES     
   10047 OW          10.6220    40.1480     4.7280 OW            1 RES     
   10048 HW1         10.9080    40.8140     4.0390 HW1           1 RES     
   10049 HW2          9.8090    39.6620     4.4060 HW2           1 RES     
   10050 OW          17.1450    17.3850    20.0750 OW            1 RES     
   10051 HW1         16.5170    17.7380    19.3830 HW1           1 RES     
   10052 HW2         16.6810    17.3480    20.9600 HW2           1 RES     
   10053 OW           2.7220    13.0840    19.2910 OW            1 RES     
   10054 HW1          3.1000    13.0910    18.3660 HW1           1 RES     
   10055 HW2          2.5000    14.0190    19.5680 HW2           1 RES     
   10056 OW          36.6520    35.1000     2.5840 OW            1 RES     
   10057 HW1         37.4600    34.5550     2.8050 HW1           1 RES     
   10058 HW2         36.8520    36.0690     2.7340 HW2           1 RES     
   10059 OW           6.6660    30.8680    16.9450 OW            1 RES     
   10060 HW1          7.5890    31.1530    17.2040 HW1           1 RES     
   10061 HW2          6.5930    29.8730    17.0100 HW2           1 RES     
   10062 OW           9.2250    27.9030     3.6290 OW            1 RES     
   10063 HW1          8.8320    28.6940     4.0980 HW1           1 RES     
   10064 HW2          9.9860    28.2000     3.0530 HW2           1 RES     
   10065 OW          40.3530    29.5910    14.2500 OW            1 RES     
   10066 HW1         40.9260    30.4030    14.3540 HW1           1 RES     
   10067 HW2         40.4410    29.0140    15.0630 HW2           1 RES     
   10068 OW          19.1680    30.1100     7.6370 OW            1 RES     
   10069 HW1         19.2720    29.1660     7.9480 HW1           1 RES     
   10070 HW2         19.7050    30.2480     6.8050 HW2           1 RES     
   10071 OW          11.5770    25.3960    19.4290 OW            1 RES     
   10072 HW1         12.3720    25.6140    19.9930 HW1           1 RES     
   10073 HW2         11.1220    24.5830    19.7930 HW2           1 RES     
   10074 OW          25.0470     7.7220     8.9690 OW            1 RES     
   10075 HW1         24.4180     7.6990     9.7460 HW1           1 RES     
   10076 HW2         24.5490     7.5010     8.1300 HW2           1 RES     
   10077 OW           3.3650    10.3620     2.6360 OW            1 RES     
   10078 HW1          2.5000     9.8800     2.5000 HW1           1 RES     
   10079 HW2          3.1820    11.2890     2.9630 HW2           1 RES     
   10080 OW          15.3000    37.5700    12.0410 OW            1 RES     
   10081 HW1         15.6160    38.4460    12.4040 HW1           1 RES     
   10082 HW2         16.0880    37.0170    11.7680 HW2           1 RES     
   10083 OW           5.5210    23.2950    13.0340 OW            1 RES     
   10084 HW1          5.4830    24.2850    12.9010 HW1           1 RES     
   10085 HW2          6.4480    22.9690    12.8450 HW2           1 RES     
   10086 OW           4.2700    17.0390    18.1500 OW            1 RES     
   10087 HW1          4.2170    17.7910    17.4950 HW1           1 RES     
   10088 HW2          4.6670    17.3700    19.0070 HW2           1 RES     
   10089 OW          16.7150    38.3150    14.5960 OW            1 RES     
   10090 HW1         16.6970    37.3160    14.6000 HW1           1 RES     
   10091 HW2         15.7780    38.6660    14.5870 HW2           1 RES     
   10092 OW          15.1350    20.5150    19.8720 OW            1 RES     
   10093 HW1         15.0590    20.9840    18.9930 HW1           1 RES     
   10094 HW2         16.0660    20.1680    19.9870 HW2           1 RES     
   10095 OW          11.9830    14.2850    18.9790 OW            1 RES     
   10096 HW1         11.0640    13.8920    18.9690 HW1           1 RES     
   10097 HW2         12.6610    13.5500    18.9840 HW2           1 RES     
   10098 OW          22.8160     2.8900    20.6130 OW            1 RES     
   10099 HW1         22.6010     2.5000    19.7180 HW1           1 RES     
   10100 HW2         22.5450     3.8520    20.6320 HW2           1 RES     
   10101 OW          10.6660     5.5810     5.2470 OW            1 RES     
   10102 HW1         10.5820     6.5440     4.9940 HW1           1 RES     
   10103 HW2         10.0870     5.0270     4.6480 HW2           1 RES     
   10104 OW          14.9280     8.4600    21.7410 OW            1 RES     
   10105 HW1         15.8610     8.6690    22.0290 HW1           1 RES     
   10106 HW2         14.7020     7.5190    21.9960 HW2           1 RES     
   10107 OW          26.4250    14.0400    17.8910 OW            1 RES     
   10108 HW1         25.7690    13.2870    17.9310 HW1           1 RES     
   10109 HW2         26.4560    14.4070    16.9610 HW2           1 RES     
   10110 OW          16.7500     7.1640    17.6940 OW            1 RES     
   10111 HW1         16.8540     6.9140    16.7320 HW1           1 RES     
   10112 HW2         17.2730     7.9950    17.8820 HW2           1 RES     
   10113 OW          10.8970    19.2760    21.0850 OW            1 RES     
   10114 HW1         10.5280    18.3490    21.1200 HW1           1 RES     
   10115 HW2         11.8690    19.2580    21.3220 HW2           1 RES     
   10116 OW          24.2140    21.9870    24.1670 OW            1 RES     
   10117 HW1         23.5170    22.7040    24.1700 HW1           1 RES     
   10118 HW2         25.0820    22.3670    23.8470 HW2           1 RES     
   10119 OW          15.8260    34.6170    20.6090 OW            1 RES     
   10120 HW1         15.3490    33.7760    20.8600 HW1           1 RES     
   10121 HW2         15.1610    35.3500    20.4700 HW2           1 RES     
   10122 OW          15.2380    19.5990    12.6000 OW            1 RES     
   10123 HW1         15.5150    20.5570    12.6580 HW1           1 RES     
   10124 HW2         14.2410    19.5410    12.5630 HW2           1 RES     
   10125 OW          17.1550    23.1500     8.4700 OW            1 RES     
   10126 HW1         17.5730    22.3490     8.8980 HW1           1 RES     
   10127 HW2         16.4780    22.8540     7.7960 HW2           1 RES     
   10128 OW          28.2120    34.5590    15.4630 OW            1 RES     
   10129 HW1         27.5130    34.3620    14.7760 HW1           1 RES     
   10130 HW2         28.7460    35.3550    15.1770 HW2           1 RES     
   10131 OW           3.7820    20.3860    13.5870 OW            1 RES     
   10132 HW1          3.6360    21.3730    13.5270 HW1           1 RES     
   10133 HW2          4.1220    20.1530    14.4980 HW2           1 RES     
   10134 OW          12.0030    37.3110    23.7760 OW            1 RES     
   10135 HW1         11.0960    37.7240    23.7140 HW1           1 RES     
   10136 HW2         12.6950    38.0310    23.8340 HW2           1 RES     
   10137 OW          35.9450    32.3320    14.7390 OW            1 RES     
   10138 HW1         35.5610    31.4760    14.3950 HW1           1 RES     
   10139 HW2         36.5900    32.1360    15.4780 HW2           1 RES     
   10140 OW          37.7410    27.9800    16.4110 OW            1 RES     
   10141 HW1         38.4240    27.4800    15.8800 HW1           1 RES     
   10142 HW2         38.0190    28.0090    17.3710 HW2           1 RES     
   10143 OW          12.5350    21.0650    17.6840 OW            1 RES     
   10144 HW1         13.1570    20.3160    17.9140 HW1           1 RES     
   10145 HW2         11.5950    20.7240    17.6680 HW2           1 RES     
   10146 OW          17.9880    24.8190    17.3900 OW            1 RES     
   10147 HW1         18.6980    24.7900    16.6860 HW1           1 RES     
   10148 HW2         18.3960    25.0750    18.2660 HW2           1 RES     
   10149 OW          34.1780    12.0960    17.5670 OW            1 RES     
   10150 HW1         33.2290    11.9460    17.8400 HW1           1 RES     
   10151 HW2         34.3320    13.0740    17.4190 HW2           1 RES     
   10152 OW          27.9260    35.4090     8.1410 OW            1 RES     
   10153 HW1         26.9280    35.4130     8.1910 HW1           1 RES     
   10154 HW2         28.2300    36.0900     7.4740 HW2           1 RES     
   10155 OW          19.0020    22.4460    18.7620 OW            1 RES     
   10156 HW1         19.7550    23.1020    18.7140 HW1           1 RES     
   10157 HW2         19.0390    21.9590    19.6350 HW2           1 RES     
   10158 OW          13.4140    16.9600     2.6940 OW            1 RES     
   10159 HW1         13.7970    16.0420     2.5900 HW1           1 RES     
   10160 HW2         12.4330    16.9370     2.5000 HW2           1 RES     
   10161 OW          16.6890    24.7880    15.4500 OW            1 RES     
   10162 HW1         16.0760    25.1860    14.7680 HW1           1 RES     
   10163 HW2         16.9200    23.8510    15.1860 HW2           1 RES     
   10164 OW          33.1410    34.4210     7.8620 OW            1 RES     
   10165 HW1         32.4100    33.8860     7.4400 HW1           1 RES     
   10166 HW2         33.7120    34.8280     7.1480 HW2           1 RES     
   10167 OW          22.7310    15.3950    16.1500 OW            1 RES     
   10168 HW1         21.8310    15.8310    16.1580 HW1           1 RES     
   10169 HW2         23.4420    16.0960    16.2000 HW2           1 RES     
   10170 OW           4.0970    22.9810    19.4960 OW            1 RES     
   10171 HW1          4.8860    22.6750    18.9630 HW1           1 RES     
   10172 HW2          4.3630    23.7530    20.0730 HW2           1 RES     
   10173 OW          26.8140     5.2340     4.6080 OW            1 RES     
   10174 HW1         27.2400     4.5930     5.2460 HW1           1 RES     
   10175 HW2         25.8420     5.3260     4.8250 HW2           1 RES     
   10176 OW          32.5060    12.1790     6.3180 OW            1 RES     
   10177 HW1         33.1680    12.7590     5.8420 HW1           1 RES     
   10178 HW2         32.6440    12.2570     7.3050 HW2           1 RES     
   10179 OW           4.2540    37.7310     6.5520 OW            1 RES     
   10180 HW1          3.9170    38.6260     6.2620 HW1           1 RES     
   10181 HW2          3.4830    37.1050     6.6690 HW2           1 RES     
   10182 OW          24.6660    39.4350     2.5010 OW            1 RES     
   10183 HW1         24.6240    40.3810     2.8210 HW1           1 RES     
   10184 HW2         23.8320    38.9540     2.7710 HW2           1 RES     
   10185 OW          35.1530    39.4970     5.5590 OW            1 RES     
   10186 HW1         35.5200    39.8600     4.7030 HW1           1 RES     
   10187 HW2         34.9290    40.2540     6.1740 HW2           1 RES     
   10188 OW          33.0140    25.7520     6.4460 OW            1 RES     
   10189 HW1         32.8670    25.7690     5.4580 HW1           1 RES     
   10190 HW2         33.2540    24.8240     6.7320 HW2           1 RES     
   10191 OW          19.9850    21.9550    16.5660 OW            1 RES     
   10192 HW1         20.9170    21.6950    16.3170 HW1           1 RES     
   10193 HW2         19.8910    22.9500    16.5130 HW2           1 RES     
   10194 OW           6.3480     4.7180    23.1810 OW            1 RES     
   10195 HW1          7.3400     4.7750    23.0800 HW1           1 RES     
   10196 HW2          6.1250     4.1430    23.9690 HW2           1 RES     
   10197 OW           2.8400    13.4630     2.8800 OW            1 RES     
   10198 HW1          2.5980    13.4280     3.8490 HW1           1 RES     
   10199 HW2          2.5720    14.3480     2.5000 HW2           1 RES     
   10200 OW          32.7050    23.4760     4.8470 OW            1 RES     
   10201 HW1         32.6410    22.8340     5.6100 HW1           1 RES     
   10202 HW2         32.2710    23.0790     4.0380 HW2           1 RES     
   10203 OW          19.5620    29.3180    11.7330 OW            1 RES     
   10204 HW1         19.1240    28.7690    12.4440 HW1           1 RES     
   10205 HW2         20.5460    29.3610    11.9040 HW2           1 RES     
   10206 OW          19.3390     7.1040    23.1180 OW            1 RES     
   10207 HW1         18.5100     6.6300    23.4130 HW1           1 RES     
   10208 HW2         19.1630     8.0880    23.0760 HW2           1 RES     
   10209 OW          16.5940    12.3840    16.1470 OW            1 RES     
   10210 HW1         16.1110    13.1530    16.5650 HW1           1 RES     
   10211 HW2         17.0680    12.6960    15.3230 HW2           1 RES     
   10212 OW          12.6600    12.4060    10.9060 OW            1 RES     
   10213 HW1         12.0290    11.7470    10.4990 HW1           1 RES     
   10214 HW2         12.7130    13.2190    10.3260 HW2           1 RES     
   10215 OW           5.6690    12.1830    19.7690 OW            1 RES     
   10216 HW1          5.5870    12.6540    18.8910 HW1           1 RES     
   10217 HW2          6.1120    11.2970    19.6330 HW2           1 RES     
   10218 OW          10.3580    33.9740     2.7380 OW            1 RES     
   10219 HW1          9.7170    33.2090     2.7890 HW1           1 RES     
   10220 HW2          9.8560    34.8360     2.8160 HW2           1 RES     
   10221 OW           9.3990    33.1580     6.2590 OW            1 RES     
   10222 HW1          9.4520    34.1560     6.2770 HW1           1 RES     
   10223 HW2          8.4410    32.8760     6.2070 HW2           1 RES     
   10224 OW          37.7620    40.9070    10.6540 OW            1 RES     
   10225 HW1         38.0810    39.9610    10.6850 HW1           1 RES     
   10226 HW2         36.7980    40.9270    10.3910 HW2           1 RES     
   10227 OW          20.4600    31.5010    18.3900 OW            1 RES     
   10228 HW1         21.1710    30.9650    18.8430 HW1           1 RES     
   10229 HW2         20.8770    32.2780    17.9180 HW2           1 RES     
   10230 OW          34.2650    33.2440    23.9630 OW            1 RES     
   10231 HW1         33.8990    32.7710    23.1630 HW1           1 RES     
   10232 HW2         35.1780    32.8920    24.1700 HW2           1 RES     
   10233 OW          17.3830    16.1510    11.8460 OW            1 RES     
   10234 HW1         16.8000    15.5040    11.3550 HW1           1 RES     
   10235 HW2         16.8520    16.6010    12.5640 HW2           1 RES     
   10236 OW           9.0690     9.2630    14.6430 OW            1 RES     
   10237 HW1          9.4760     8.5680    14.0500 HW1           1 RES     
   10238 HW2          8.3050     9.7000    14.1690 HW2           1 RES     
   10239 OW          30.8270    25.7510     9.5620 OW            1 RES     
   10240 HW1         30.6300    25.7370    10.5420 HW1           1 RES     
   10241 HW2         31.7160    25.3250     9.3950 HW2           1 RES     
   10242 OW           5.6700    21.8460    22.5260 OW            1 RES     
   10243 HW1          4.7980    21.9560    23.0020 HW1           1 RES     
   10244 HW2          5.7710    20.8960    22.2290 HW2           1 RES     
   10245 OW           4.3480    40.3070    16.8470 OW            1 RES     
   10246 HW1          3.5220    40.8320    17.0480 HW1           1 RES     
   10247 HW2          4.3600    39.4760    17.4030 HW2           1 RES     
   10248 OW          26.4340    28.4090    12.8560 OW            1 RES     
   10249 HW1         26.6450    27.7210    12.1640 HW1           1 RES     
   10250 HW2         27.2610    28.9290    13.0730 HW2           1 RES     
   10251 OW          33.6010    32.7580     5.1900 OW            1 RES     
   10252 HW1         33.5680    32.0800     4.4570 HW1           1 RES     
   10253 HW2         33.5500    33.6770     4.7980 HW2           1 RES     
   10254 OW          39.3720    20.5390    13.7210 OW            1 RES     
   10255 HW1         38.6460    21.2030    13.5480 HW1           1 RES     
   10256 HW2         40.0430    20.9330    14.3500 HW2           1 RES     
   10257 OW           9.6900    12.1600    13.6340 OW            1 RES     
   10258 HW1         10.1130    12.2030    14.5380 HW1           1 RES     
   10259 HW2          8.7580    11.8050    13.7180 HW2           1 RES     
   10260 OW          29.3830    25.1150    17.6350 OW            1 RES     
   10261 HW1         29.4830    24.8060    18.5800 HW1           1 RES     
   10262 HW2         28.7010    24.5500    17.1700 HW2           1 RES     
   10263 OW           7.2820     6.7860    17.8740 OW            1 RES     
   10264 HW1          8.0880     6.5740    17.3220 HW1           1 RES     
   10265 HW2          7.2240     7.7740    18.0150 HW2           1 RES     
   10266 OW          22.4910     5.9190    21.4420 OW            1 RES     
   10267 HW1         22.3170     6.3190    22.3410 HW1           1 RES     
   10268 HW2         23.4720     5.7590    21.3320 HW2           1 RES     
   10269 OW          22.3270    38.2510    22.7790 OW            1 RES     
   10270 HW1         21.6850    37.7290    23.3410 HW1           1 RES     
   10271 HW2         22.4910    37.7640    21.9210 HW2           1 RES     
   10272 OW          36.6030    26.9040     7.3990 OW            1 RES     
   10273 HW1         35.9520    26.5020     6.7550 HW1           1 RES     
   10274 HW2         37.4990    26.9830     6.9610 HW2           1 RES     
   10275 OW          32.9340     8.8410    21.6180 OW            1 RES     
   10276 HW1         33.5700     8.6540    20.8700 HW1           1 RES     
   10277 HW2         32.3690     8.0330    21.7860 HW2           1 RES     
   10278 OW          26.5380    23.7660    22.9720 OW            1 RES     
   10279 HW1         27.3690    24.3170    22.9100 HW1           1 RES     
   10280 HW2         25.9540    23.9520    22.1820 HW2           1 RES     
   10281 OW          12.9190     6.2350    16.7580 OW            1 RES     
   10282 HW1         12.2620     6.7910    17.2670 HW1           1 RES     
   10283 HW2         12.4440     5.4660    16.3300 HW2           1 RES     
   10284 OW          17.7330    17.2720    17.0010 OW            1 RES     
   10285 HW1         17.3840    18.1500    17.3280 HW1           1 RES     
   10286 HW2         16.9910    16.6010    16.9890 HW2           1 RES     
   10287 OW          21.3760    19.2890     6.2780 OW            1 RES     
   10288 HW1         21.6380    18.8400     7.1310 HW1           1 RES     
   10289 HW2         20.7680    18.6890     5.7580 HW2           1 RES     
   10290 OW          15.4350    28.5710     4.5950 OW            1 RES     
   10291 HW1         14.5500    28.8980     4.2640 HW1           1 RES     
   10292 HW2         15.3210    27.6710     5.0180 HW2           1 RES     
   10293 OW           8.1990    14.5700    13.2850 OW            1 RES     
   10294 HW1          8.3780    13.7860    12.6920 HW1           1 RES     
   10295 HW2          8.3960    14.3230    14.2340 HW2           1 RES     
   10296 OW          32.4140    40.5060     3.5950 OW            1 RES     
   10297 HW1         31.8520    40.9270     4.3060 HW1           1 RES     
   10298 HW2         33.3370    40.8900     3.6280 HW2           1 RES     
   10299 OW          30.1830    40.7920    17.4290 OW            1 RES     
   10300 HW1         30.7520    40.4690    18.1840 HW1           1 RES     
   10301 HW2         30.4890    40.3700    16.5760 HW2           1 RES     
   10302 OW          35.3570    24.9840    12.8420 OW            1 RES     
   10303 HW1         35.0860    25.9450    12.7880 HW1           1 RES     
   10304 HW2         36.3540    24.9210    12.8940 HW2           1 RES     
   10305 OW          36.7730    30.3660    11.8870 OW            1 RES     
   10306 HW1         37.5130    31.0370    11.8490 HW1           1 RES     
   10307 HW2         37.1590    29.4440    11.9130 HW2           1 RES     
   10308 OW          36.2200    26.4410    10.8090 OW            1 RES     
   10309 HW1         37.2070    26.5800    10.7430 HW1           1 RES     
   10310 HW2         35.7530    27.3220    10.7360 HW2           1 RES     
   10311 OW          38.7240     3.9160     6.9390 OW            1 RES     
   10312 HW1         39.1560     3.2580     6.3220 HW1           1 RES     
   10313 HW2         39.3590     4.1480     7.6760 HW2           1 RES     
   10314 OW          10.1980    13.9990    16.6750 OW            1 RES     
   10315 HW1         10.6620    13.1180    16.7660 HW1           1 RES     
   10316 HW2          9.2910    13.8600    16.2770 HW2           1 RES     
   10317 OW          23.9240    26.9100     4.0750 OW            1 RES     
   10318 HW1         24.6840    26.8810     4.7230 HW1           1 RES     
   10319 HW2         24.0220    27.7090     3.4800 HW2           1 RES     
   10320 OW          25.2140    39.6160    10.8650 OW            1 RES     
   10321 HW1         25.5030    40.3940    11.4220 HW1           1 RES     
   10322 HW2         24.3630    39.2400    11.2330 HW2           1 RES     
   10323 OW          15.6900     9.7430     5.5740 OW            1 RES     
   10324 HW1         14.7590     9.4570     5.7990 HW1           1 RES     
   10325 HW2         16.2230     8.9470     5.2860 HW2           1 RES     
   10326 OW          15.1150    35.0300    13.0030 OW            1 RES     
   10327 HW1         14.9280    34.1920    13.5160 HW1           1 RES     
   10328 HW2         16.0600    35.3160    13.1630 HW2           1 RES     
   10329 OW          31.9840    27.8000    10.4000 OW            1 RES     
   10330 HW1         32.7910    27.9970     9.8440 HW1           1 RES     
   10331 HW2         31.3530    28.5750    10.3590 HW2           1 RES     
   10332 OW          17.8580    30.0950     5.3980 OW            1 RES     
   10333 HW1         18.0140    30.9330     4.8760 HW1           1 RES     
   10334 HW2         16.8750    29.9550     5.5180 HW2           1 RES     
   10335 OW          10.2670    40.9270    14.6290 OW            1 RES     
   10336 HW1         10.7580    40.0620    14.7250 HW1           1 RES     
   10337 HW2          9.3560    40.7540    14.2550 HW2           1 RES     
   10338 OW          22.7790    13.0020    22.8530 OW            1 RES     
   10339 HW1         23.4640    13.1510    22.1410 HW1           1 RES     
   10340 HW2         22.2130    13.8220    22.9480 HW2           1 RES     
   10341 OW          36.2000     3.2990    18.6950 OW            1 RES     
   10342 HW1         37.0500     3.5950    19.1270 HW1           1 RES     
   10343 HW2         36.3780     2.5000    18.1190 HW2           1 RES     
   10344 OW          26.3490    23.3500    16.3990 OW            1 RES     
   10345 HW1         25.7450    24.1430    16.3280 HW1           1 RES     
   10346 HW2         25.8050    22.5120    16.3590 HW2           1 RES     
   10347 OW          20.6600    11.4800     6.1620 OW            1 RES     
   10348 HW1         19.7540    11.8910     6.2570 HW1           1 RES     
   10349 HW2         20.5830    10.4850     6.2230 HW2           1 RES     
   10350 OW           3.3870     2.5050    10.0130 OW            1 RES     
   10351 HW1          4.3680     2.5000     9.8230 HW1           1 RES     
   10352 HW2          3.0680     3.4490    10.1010 HW2           1 RES     
   10353 OW          28.0540    15.1430     5.4400 OW            1 RES     
   10354 HW1         29.0340    14.9470     5.4420 HW1           1 RES     
   10355 HW2         27.9110    16.1330     5.4370 HW2           1 RES     
   10356 OW          19.9520    12.9020    22.0960 OW            1 RES     
   10357 HW1         19.8350    13.8850    21.9550 HW1           1 RES     
   10358 HW2         19.0550    12.4630    22.1410 HW2           1 RES     
   10359 OW           3.4820    17.2690    10.1410 OW            1 RES     
   10360 HW1          3.7590    18.2140     9.9690 HW1           1 RES     
   10361 HW2          2.5000    17.2380    10.3290 HW2           1 RES     
   10362 OW          32.2200    23.0640    11.1320 OW            1 RES     
   10363 HW1         31.7810    22.2290    10.8010 HW1           1 RES     
   10364 HW2         31.5730    23.8250    11.0820 HW2           1 RES     
   10365 OW          25.5550    13.2040     5.1330 OW            1 RES     
   10366 HW1         26.4340    13.6730     5.2020 HW1           1 RES     
   10367 HW2         24.8250    13.8150     5.4420 HW2           1 RES     
   10368 OW           9.0830    18.2930     8.9300 OW            1 RES     
   10369 HW1          8.3770    18.8680     9.3420 HW1           1 RES     
   10370 HW2          9.9560    18.7820     8.9330 HW2           1 RES     
   10371 OW          25.8480    37.7950    11.9740 OW            1 RES     
   10372 HW1         26.4640    37.2710    11.3860 HW1           1 RES     
   10373 HW2         26.2350    37.8550    12.8940 HW2           1 RES     
   10374 OW           6.2620     4.5660    16.5680 OW            1 RES     
   10375 HW1          7.0000     4.2950    17.1850 HW1           1 RES     
   10376 HW2          6.3730     5.5270    16.3160 HW2           1 RES     
   10377 OW          13.8720    34.3200     9.6260 OW            1 RES     
   10378 HW1         13.8110    33.4030    10.0170 HW1           1 RES     
   10379 HW2         14.4470    34.2970     8.8080 HW2           1 RES     
   10380 OW          16.7910    26.5950    16.8390 OW            1 RES     
   10381 HW1         15.8130    26.4350    16.9710 HW1           1 RES     
   10382 HW2         16.9400    27.5460    16.5650 HW2           1 RES     
   10383 OW          33.2390    36.1630    17.4180 OW            1 RES     
   10384 HW1         33.0580    35.1800    17.3930 HW1           1 RES     
   10385 HW2         34.2270    36.3200    17.4450 HW2           1 RES     
   10386 OW          38.3290     9.1680    18.3830 OW            1 RES     
   10387 HW1         38.3990     8.2920    18.8580 HW1           1 RES     
   10388 HW2         38.4340     9.9140    19.0400 HW2           1 RES     
   10389 OW          28.4390    17.9630    14.7340 OW            1 RES     
   10390 HW1         29.3420    18.3890    14.6940 HW1           1 RES     
   10391 HW2         28.1780    17.6490    13.8210 HW2           1 RES     
   10392 OW           2.5820     7.1160    11.0710 OW            1 RES     
   10393 HW1          2.5030     6.1260    10.9570 HW1           1 RES     
   10394 HW2          3.3770     7.4480    10.5630 HW2           1 RES     
   10395 OW          35.3570    39.1830    11.5740 OW            1 RES     
   10396 HW1         36.1770    38.9260    11.0620 HW1           1 RES     
   10397 HW2         35.0830    38.4270    12.1680 HW2           1 RES     
   10398 OW           9.5500    37.0890    11.7890 OW            1 RES     
   10399 HW1         10.3590    37.4810    11.3520 HW1           1 RES     
   10400 HW2          8.8160    37.0040    11.1150 HW2           1 RES     
   10401 OW          37.1480    12.3390     6.5050 OW            1 RES     
   10402 HW1         37.2020    11.6250     7.2020 HW1           1 RES     
   10403 HW2         38.0170    12.8320     6.4640 HW2           1 RES     
   10404 OW          28.5300    11.3300    14.6240 OW            1 RES     
   10405 HW1         27.9580    11.1920    13.8170 HW1           1 RES     
   10406 HW2         29.3890    11.7670    14.3550 HW2           1 RES     
   10407 OW          32.5320    19.8140    13.2390 OW            1 RES     
   10408 HW1         31.5500    19.9630    13.3440 HW1           1 RES     
   10409 HW2         32.7440    19.6480    12.2760 HW2           1 RES     
   10410 OW          24.3580    40.0950    21.7620 OW            1 RES     
   10411 HW1         23.8790    39.8880    20.9100 HW1           1 RES     
   10412 HW2         24.1890    39.3660    22.4260 HW2           1 RES     
   10413 OW           2.5030    26.1820    15.9720 OW            1 RES     
   10414 HW1          2.6400    27.0660    16.4180 HW1           1 RES     
   10415 HW2          2.7800    26.2450    15.0130 HW2           1 RES     
   10416 OW          39.6080    17.6550     2.5080 OW            1 RES     
   10417 HW1         39.0010    16.8610     2.5080 HW1           1 RES     
   10418 HW2         39.0630    18.4930     2.5070 HW2           1 RES     
   10419 OW          38.7750    15.3030    13.7660 OW            1 RES     
   10420 HW1         37.9810    14.8920    14.2120 HW1           1 RES     
   10421 HW2         38.5820    16.2620    13.5580 HW2           1 RES     
   10422 OW          16.8660    29.3390    17.8380 OW            1 RES     
   10423 HW1         16.0870    29.9430    17.6780 HW1           1 RES     
   10424 HW2         17.5680    29.8290    18.3550 HW2           1 RES     
   10425 OW          37.0560    18.8000    13.9310 OW            1 RES     
   10426 HW1         37.8690    18.2600    14.1420 HW1           1 RES     
   10427 HW2         37.1780    19.7330    14.2710 HW2           1 RES     
   10428 OW          37.6420    15.7540     9.2870 OW            1 RES     
   10429 HW1         37.0250    15.0860     9.7020 HW1           1 RES     
   10430 HW2         38.1070    16.2720    10.0050 HW2           1 RES     
   10431 OW          22.3770    29.3480    17.2800 OW            1 RES     
   10432 HW1         21.5510    29.8150    16.9650 HW1           1 RES     
   10433 HW2         22.7830    28.8390    16.5210 HW2           1 RES     
   10434 OW          12.8000    17.9720    14.0890 OW            1 RES     
   10435 HW1         11.9190    18.2770    14.4490 HW1           1 RES     
   10436 HW2         12.8210    16.9720    14.0630 HW2           1 RES     
   10437 OW          25.1200    35.6590    18.2040 OW            1 RES     
   10438 HW1         25.2450    35.5720    17.2160 HW1           1 RES     
   10439 HW2         25.5710    34.8950    18.6660 HW2           1 RES     
   10440 OW          10.6920     5.8670    21.4830 OW            1 RES     
   10441 HW1         11.2820     5.0620    21.4390 HW1           1 RES     
   10442 HW2         10.9660     6.5200    20.7760 HW2           1 RES     
   10443 OW          37.4050    11.0180     4.7650 OW            1 RES     
   10444 HW1         36.4050    11.0120     4.7680 HW1           1 RES     
   10445 HW2         37.7440    10.0770     4.7620 HW2           1 RES     
   10446 OW          16.7500     9.2030    15.0490 OW            1 RES     
   10447 HW1         16.9310     9.2220    16.0320 HW1           1 RES     
   10448 HW2         16.8270     8.2640    14.7140 HW2           1 RES     
   10449 OW           9.7820    30.6280    20.8340 OW            1 RES     
   10450 HW1          9.0370    31.2930    20.8640 HW1           1 RES     
   10451 HW2          9.8100    30.1190    21.6950 HW2           1 RES     
   10452 OW          33.3570    23.0750     9.2400 OW            1 RES     
   10453 HW1         33.9200    23.6280     9.8530 HW1           1 RES     
   10454 HW2         32.9080    23.6690     8.5720 HW2           1 RES     
   10455 OW           2.6420    27.5590     7.4450 OW            1 RES     
   10456 HW1          2.5000    27.8860     8.3790 HW1           1 RES     
   10457 HW2          3.3210    28.1350     6.9890 HW2           1 RES     
   10458 OW          19.0160     3.4640    16.0090 OW            1 RES     
   10459 HW1         19.0360     2.5010    16.2760 HW1           1 RES     
   10460 HW2         19.7540     3.6460    15.3590 HW2           1 RES     
   10461 OW          35.1750     6.5020    15.9490 OW            1 RES     
   10462 HW1         34.6260     7.3370    15.9400 HW1           1 RES     
   10463 HW2         35.5700     6.3520    15.0420 HW2           1 RES     
   10464 OW          33.8440     8.3200    12.0720 OW            1 RES     
   10465 HW1         34.1290     9.0350    11.4350 HW1           1 RES     
   10466 HW2         32.9110     8.0320    11.8560 HW2           1 RES     
   10467 OW          40.8860    20.3250     2.7880 OW            1 RES     
   10468 HW1         40.9270    19.4240     3.2180 HW1           1 RES     
   10469 HW2         39.9470    20.5150     2.5000 HW2           1 RES     
   10470 OW          11.2470    14.1710    12.4330 OW            1 RES     
   10471 HW1         10.5470    14.3180    11.7350 HW1           1 RES     
   10472 HW2         12.1410    14.4340    12.0690 HW2           1 RES     
   10473 OW          14.2690     3.8640     8.0830 OW            1 RES     
   10474 HW1         13.7930     3.0210     7.8310 HW1           1 RES     
   10475 HW2         13.6250     4.6290     8.0650 HW2           1 RES     
   10476 OW          21.0900    36.2460    12.6560 OW            1 RES     
   10477 HW1         21.8780    36.8580    12.6890 HW1           1 RES     
   10478 HW2         21.3590    35.3370    12.9750 HW2           1 RES     
   10479 OW           4.5990    34.6920    18.7920 OW            1 RES     
   10480 HW1          3.6730    35.0380    18.6470 HW1           1 RES     
   10481 HW2          5.1880    34.9880    18.0400 HW2           1 RES     
   10482 OW          37.9440    11.7130    11.6090 OW            1 RES     
   10483 HW1         37.5070    10.9190    11.1880 HW1           1 RES     
   10484 HW2         37.2640    12.4310    11.7540 HW2           1 RES     
   10485 OW          15.4260    38.2910    20.1300 OW            1 RES     
   10486 HW1         14.5640    38.2730    19.6250 HW1           1 RES     
   10487 HW2         15.4370    37.5470    20.7980 HW2           1 RES     
   10488 OW          30.7380    10.0760     4.5190 OW            1 RES     
   10489 HW1         31.6330    10.4590     4.2920 HW1           1 RES     
   10490 HW2         30.8590     9.2260     5.0330 HW2           1 RES     
   10491 OW          25.1760    21.5680     4.5600 OW            1 RES     
   10492 HW1         26.0570    21.7090     4.1110 HW1           1 RES     
   10493 HW2         24.6430    22.4140     4.5230 HW2           1 RES     
   10494 OW          31.5950    21.0000    16.2970 OW            1 RES     
   10495 HW1         31.5200    20.2210    16.9180 HW1           1 RES     
   10496 HW2         32.1380    20.7400    15.4980 HW2           1 RES     
   10497 OW          34.2440    15.6660    10.2370 OW            1 RES     
   10498 HW1         33.3140    15.9990    10.0850 HW1           1 RES     
   10499 HW2         34.2380    14.6660    10.2800 HW2           1 RES     
   10500 OW          36.5410    17.0350     6.4160 OW            1 RES     
   10501 HW1         36.7360    17.3460     7.3450 HW1           1 RES     
   10502 HW2         35.6110    17.3040     6.1620 HW2           1 RES     
   10503 OW          14.7220    36.9470     8.1030 OW            1 RES     
   10504 HW1         15.0750    36.4050     8.8650 HW1           1 RES     
   10505 HW2         13.7260    36.8650     8.0690 HW2           1 RES     
   10506 OW          34.8480    34.1070    12.6100 OW            1 RES     
   10507 HW1         35.2300    34.9670    12.2750 HW1           1 RES     
   10508 HW2         35.0850    33.9900    13.5750 HW2           1 RES     
   10509 OW          27.6880    27.1420    22.1200 OW            1 RES     
   10510 HW1         28.5000    26.7330    21.7030 HW1           1 RES     
   10511 HW2         27.9250    28.0330    22.5070 HW2           1 RES     
   10512 OW          36.2070    17.1580    18.4280 OW            1 RES     
   10513 HW1         36.3990    18.1390    18.4480 HW1           1 RES     
   10514 HW2         36.7720    16.7220    17.7270 HW2           1 RES     
   10515 OW          33.7110    19.7220    10.2980 OW            1 RES     
   10516 HW1         34.2120    18.9990    10.7710 HW1           1 RES     
   10517 HW2         34.3570    20.4010     9.9460 HW2           1 RES     
   10518 OW          21.6750     4.2370    18.1050 OW            1 RES     
   10519 HW1         22.2170     3.4640    17.7780 HW1           1 RES     
   10520 HW2         21.1650     3.9650    18.9220 HW2           1 RES     
   10521 OW          13.0210    19.2220     6.5240 OW            1 RES     
   10522 HW1         13.9330    19.0160     6.8770 HW1           1 RES     
   10523 HW2         12.3660    18.5560     6.8810 HW2           1 RES     
   10524 OW          29.2740     5.5520     8.2140 OW            1 RES     
   10525 HW1         29.3090     4.5540     8.2000 HW1           1 RES     
   10526 HW2         28.3210     5.8530     8.2420 HW2           1 RES     
   10527 OW          36.3350    37.3220    16.3200 OW            1 RES     
   10528 HW1         35.4150    37.6550    16.1160 HW1           1 RES     
   10529 HW2         36.2840    36.3750    16.6400 HW2           1 RES     
   10530 OW          28.0190     4.1200    17.6620 OW            1 RES     
   10531 HW1         28.9360     4.5160    17.6330 HW1           1 RES     
   10532 HW2         27.3400     4.8540    17.6850 HW2           1 RES     
   10533 OW          34.1760    29.5470     3.3140 OW            1 RES     
   10534 HW1         34.5900    30.4490     3.1980 HW1           1 RES     
   10535 HW2         33.6410    29.3190     2.5000 HW2           1 RES     
   10536 OW          17.4390    31.8950     9.3800 OW            1 RES     
   10537 HW1         18.1340    31.1890     9.2520 HW1           1 RES     
   10538 HW2         16.5430    31.4650     9.4910 HW2           1 RES     
   10539 OW          34.5790     6.6630    20.5220 OW            1 RES     
   10540 HW1         35.1950     6.5100    21.2940 HW1           1 RES     
   10541 HW2         33.6400     6.4560    20.7980 HW2           1 RES     
   10542 OW          36.7040    22.0000    20.7490 OW            1 RES     
   10543 HW1         35.9730    22.6290    21.0100 HW1           1 RES     
   10544 HW2         36.3450    21.3110    20.1200 HW2           1 RES     
   10545 OW          13.4100     4.3140    20.8630 OW            1 RES     
   10546 HW1         13.2990     4.2850    21.8560 HW1           1 RES     
   10547 HW2         13.2830     5.2510    20.5390 HW2           1 RES     
   10548 OW          28.9350    13.2540     3.4640 OW            1 RES     
   10549 HW1         29.8630    13.4930     3.1800 HW1           1 RES     
   10550 HW2         28.3760    14.0830     3.5080 HW2           1 RES     
   10551 OW          21.8890    18.6550    21.8230 OW            1 RES     
   10552 HW1         20.9040    18.6860    21.9870 HW1           1 RES     
   10553 HW2         22.2490    19.5870    21.7780 HW2           1 RES     
   10554 OW           4.8730     5.1770    18.6300 OW            1 RES     
   10555 HW1          5.3030     6.0720    18.5180 HW1           1 RES     
   10556 HW2          5.0890     4.8130    19.5370 HW2           1 RES     
   10557 OW           9.1340     4.2770    18.6010 OW            1 RES     
   10558 HW1         10.1190     4.3820    18.7320 HW1           1 RES     
   10559 HW2          8.9040     3.3050    18.5540 HW2           1 RES     
   10560 OW          27.8720     5.2240    19.7870 OW            1 RES     
   10561 HW1         28.8010     5.5870    19.8470 HW1           1 RES     
   10562 HW2         27.2260     5.9790    19.6700 HW2           1 RES     
   10563 OW          14.1440     9.9180    19.9650 OW            1 RES     
   10564 HW1         15.1060     9.6550    19.9030 HW1           1 RES     
   10565 HW2         13.9030    10.4930    19.1820 HW2           1 RES     
   10566 OW          33.0840     2.7680     5.9290 OW            1 RES     
   10567 HW1         33.2630     3.7340     5.7500 HW1           1 RES     
   10568 HW2         33.5230     2.5000     6.7870 HW2           1 RES     
   10569 OW          31.9600    31.5490     6.1470 OW            1 RES     
   10570 HW1         31.2460    32.1380     5.7710 HW1           1 RES     
   10571 HW2         31.6430    30.6010     6.1530 HW2           1 RES     
   10572 OW           8.7470     4.5600     6.5000 OW            1 RES     
   10573 HW1          8.0460     4.1870     5.8930 HW1           1 RES     
   10574 HW2          8.7840     5.5540     6.3980 HW2           1 RES     
   10575 OW           6.1370    18.1300    22.3880 OW            1 RES     
   10576 HW1          6.8870    17.9740    21.7460 HW1           1 RES     
   10577 HW2          5.6560    17.2690    22.5560 HW2           1 RES     
   10578 OW          17.9210    27.6510     2.5000 OW            1 RES     
   10579 HW1         17.0240    28.0910     2.5000 HW1           1 RES     
   10580 HW2         17.8050    26.6570     2.5000 HW2           1 RES     
   10581 OW          33.4810     3.5540    13.0230 OW            1 RES     
   10582 HW1         33.9850     4.2840    12.5630 HW1           1 RES     
   10583 HW2         33.4540     3.7350    14.0060 HW2           1 RES     
   10584 OW          14.2610    27.0030    19.2810 OW            1 RES     
   10585 HW1         14.5400    26.5430    20.1230 HW1           1 RES     
   10586 HW2         14.2550    26.3440    18.5280 HW2           1 RES     
   10587 OW          14.9230    26.6430     9.3390 OW            1 RES     
   10588 HW1         15.4070    27.5070     9.2010 HW1           1 RES     
   10589 HW2         14.9680    26.3870    10.3050 HW2           1 RES     
   10590 OW           3.2870    21.1120     9.3300 OW            1 RES     
   10591 HW1          2.6230    20.3680     9.4040 HW1           1 RES     
   10592 HW2          3.1850    21.5640     8.4440 HW2           1 RES     
   10593 OW           8.8220    26.1200     8.3350 OW            1 RES     
   10594 HW1          8.3760    26.9850     8.5600 HW1           1 RES     
   10595 HW2          9.8130    26.2510     8.3100 HW2           1 RES     
   10596 OW          10.1420    30.6900     5.9620 OW            1 RES     
   10597 HW1          9.3500    30.8990     6.5340 HW1           1 RES     
   10598 HW2         10.0470    29.7680     5.5850 HW2           1 RES     
   10599 OW          12.9300    11.6050     4.3870 OW            1 RES     
   10600 HW1         12.1840    12.2070     4.1040 HW1           1 RES     
   10601 HW2         13.6370    11.5930     3.6790 HW2           1 RES     
   10602 OW           2.5000    36.7640     4.7130 OW            1 RES     
   10603 HW1          3.3430    36.4600     4.2710 HW1           1 RES     
   10604 HW2          2.5130    37.7600     4.8060 HW2           1 RES     
   10605 OW          40.0960    16.7570    19.6910 OW            1 RES     
   10606 HW1         39.1890    17.0240    19.3660 HW1           1 RES     
   10607 HW2         40.4180    15.9660    19.1710 HW2           1 RES     
   10608 OW          16.8510     9.6670    10.7520 OW            1 RES     
   10609 HW1         17.5410     9.7320    10.0310 HW1           1 RES     
   10610 HW2         16.0620     9.1550    10.4120 HW2           1 RES     
   10611 OW          40.8240    19.5600    18.3090 OW            1 RES     
   10612 HW1         40.4710    19.9320    17.4510 HW1           1 RES     
   10613 HW2         40.2700    18.7740    18.5850 HW2           1 RES     
   10614 OW          10.8290     5.2430    23.5890 OW            1 RES     
   10615 HW1         11.5280     4.8280    24.1700 HW1           1 RES     
   10616 HW2          9.9260     4.9200    23.8710 HW2           1 RES     
   10617 OW          17.8810    34.8200     2.5000 OW            1 RES     
   10618 HW1         17.1420    34.6800     3.1580 HW1           1 RES     
   10619 HW2         18.7270    35.0330     2.9900 HW2           1 RES     
   10620 OW           5.5020    15.5510     2.5010 OW            1 RES     
   10621 HW1          5.6620    15.9730     3.3930 HW1           1 RES     
   10622 HW2          5.8730    14.6220     2.5000 HW2           1 RES     
   10623 OW          40.9250    26.9610    10.4050 OW            1 RES     
   10624 HW1         40.0360    26.5180    10.5110 HW1           1 RES     
   10625 HW2         40.9270    27.8280    10.9030 HW2           1 RES     
   10626 OW          38.5380    22.4010    22.0030 OW            1 RES     
   10627 HW1         39.3870    22.8240    21.6880 HW1           1 RES     
   10628 HW2         38.5540    21.4230    21.7930 HW2           1 RES     
   10629 OW          23.4940    22.2150     8.7640 OW            1 RES     
   10630 HW1         22.6410    21.7250     8.9380 HW1           1 RES     
   10631 HW2         24.0570    22.2080     9.5910 HW2           1 RES     
   10632 OW          15.8930    24.4390    22.0660 OW            1 RES     
   10633 HW1         15.0580    24.0250    22.4270 HW1           1 RES     
   10634 HW2         15.6540    25.2010    21.4640 HW2           1 RES     
   10635 OW          39.3670     9.0980    24.0210 OW            1 RES     
   10636 HW1         40.1820     9.6570    24.1690 HW1           1 RES     
   10637 HW2         39.6100     8.1300    24.0830 HW2           1 RES     
   10638 OW           6.8110    33.5110    14.2250 OW            1 RES     
   10639 HW1          6.7580    34.4770    13.9740 HW1           1 RES     
   10640 HW2          6.5200    33.3970    15.1760 HW2           1 RES     
   10641 OW          20.6070    34.8830    10.9580 OW            1 RES     
   10642 HW1         21.2920    34.1620    10.8620 HW1           1 RES     
   10643 HW2         19.8180    34.6720    10.3800 HW2           1 RES     
   10644 OW          35.4890    11.5800    23.1700 OW            1 RES     
   10645 HW1         36.0040    11.6800    24.0200 HW1           1 RES     
   10646 HW2         35.2540    12.4850    22.8130 HW2           1 RES     
   10647 OW          25.6700    25.2980     2.5020 OW            1 RES     
   10648 HW1         26.5260    24.7880     2.5780 HW1           1 RES     
   10649 HW2         25.1580    25.2220     3.3580 HW2           1 RES     
   10650 OW           7.2110     9.4660    10.8060 OW            1 RES     
   10651 HW1          7.3540    10.4450    10.6640 HW1           1 RES     
   10652 HW2          6.5650     9.3290    11.5570 HW2           1 RES     
   10653 OW           5.0390    33.0050     9.3510 OW            1 RES     
   10654 HW1          6.0110    32.7710     9.3340 HW1           1 RES     
   10655 HW2          4.9350    34.0000     9.3580 HW2           1 RES     
   10656 OW           8.8990    32.0190     8.3740 OW            1 RES     
   10657 HW1          9.7190    32.5890     8.3600 HW1           1 RES     
   10658 HW2          9.1320    31.1070     8.7140 HW2           1 RES     
   10659 OW          27.5760    18.5210    22.0930 OW            1 RES     
   10660 HW1         27.1920    17.7170    22.5470 HW1           1 RES     
   10661 HW2         27.6950    18.3280    21.1180 HW2           1 RES     
   10662 OW          11.3210    18.4560    16.5580 OW            1 RES     
   10663 HW1         11.3480    18.5410    17.5540 HW1           1 RES     
   10664 HW2         10.3710    18.4850    16.2460 HW2           1 RES     
   10665 OW          33.0830     5.3540     8.1070 OW            1 RES     
   10666 HW1         33.8610     4.7600     7.9070 HW1           1 RES     
   10667 HW2         32.2360     4.8990     7.8320 HW2           1 RES     
   10668 OW          29.4890    11.6560    22.3460 OW            1 RES     
   10669 HW1         28.4910    11.7040    22.3670 HW1           1 RES     
   10670 HW2         29.8700    12.5770    22.4340 HW2           1 RES     
   10671 OW          26.3320     7.0980    10.6500 OW            1 RES     
   10672 HW1         26.4880     7.9660    11.1200 HW1           1 RES     
   10673 HW2         27.1640     6.8270    10.1650 HW2           1 RES     
   10674 OW          21.7220     9.4140     8.2700 OW            1 RES     
   10675 HW1         22.6200     9.0670     8.5380 HW1           1 RES     
   10676 HW2         21.2300     9.7310     9.0820 HW2           1 RES     
   10677 OW          15.4980    22.5900    13.7350 OW            1 RES     
   10678 HW1         15.1990    22.7390    12.7930 HW1           1 RES     
   10679 HW2         14.7050    22.3870    14.3090 HW2           1 RES     
   10680 OW          35.0470    31.3270     6.0270 OW            1 RES     
   10681 HW1         34.7450    30.3900     6.1980 HW1           1 RES     
   10682 HW2         35.9330    31.3120     5.5620 HW2           1 RES     
   10683 OW          15.5260    20.0900     7.9810 OW            1 RES     
   10684 HW1         15.1960    20.5020     8.8290 HW1           1 RES     
   10685 HW2         15.7980    20.8110     7.3440 HW2           1 RES     
   10686 OW          26.4550    32.0870    18.0600 OW            1 RES     
   10687 HW1         27.1050    32.8140    18.2770 HW1           1 RES     
   10688 HW2         25.6410    32.4830    17.6350 HW2           1 RES     
   10689 OW          14.4910    22.1090    16.9300 OW            1 RES     
   10690 HW1         13.8560    22.7950    17.2820 HW1           1 RES     
   10691 HW2         15.2360    22.5640    16.4410 HW2           1 RES     
   10692 OW          19.4550    33.3370     4.1870 OW            1 RES     
   10693 HW1         18.5250    32.9770     4.2410 HW1           1 RES     
   10694 HW2         20.0920    32.6810     4.5930 HW2           1 RES     
   10695 OW          37.3210    12.1070     9.3450 OW            1 RES     
   10696 HW1         36.9440    12.9860     9.0540 HW1           1 RES     
   10697 HW2         38.3150    12.1810     9.4300 HW2           1 RES     
   10698 OW          17.6080    30.0910    13.4800 OW            1 RES     
   10699 HW1         17.5390    31.0880    13.4440 HW1           1 RES     
   10700 HW2         16.6920    29.6920    13.4390 HW2           1 RES     
   10701 OW           6.5740    20.3430    13.2800 OW            1 RES     
   10702 HW1          6.2750    19.9000    14.1250 HW1           1 RES     
   10703 HW2          5.8140    20.8620    12.8890 HW2           1 RES     
   10704 OW           5.2440    17.5410    12.5920 OW            1 RES     
   10705 HW1          5.0230    18.3860    13.0770 HW1           1 RES     
   10706 HW2          4.4270    17.1990    12.1270 HW2           1 RES     
   10707 OW          40.4620    36.4500    21.4020 OW            1 RES     
   10708 HW1         40.7660    36.9400    22.2180 HW1           1 RES     
   10709 HW2         39.4870    36.6210    21.2540 HW2           1 RES     
   10710 OW          26.5110    38.4810    18.8920 OW            1 RES     
   10711 HW1         26.8560    39.3020    18.4390 HW1           1 RES     
   10712 HW2         26.0950    37.8750    18.2130 HW2           1 RES     
   10713 OW          16.4780     5.5540     3.9690 OW            1 RES     
   10714 HW1         17.3190     5.0180     4.0410 HW1           1 RES     
   10715 HW2         16.7050     6.5280     3.9460 HW2           1 RES     
   10716 OW          29.6590    37.3870    15.7740 OW            1 RES     
   10717 HW1         29.9940    38.3000    16.0030 HW1           1 RES     
   10718 HW2         30.1170    37.0620    14.9460 HW2           1 RES     
   10719 OW          15.4230    32.1810     7.7340 OW            1 RES     
   10720 HW1         15.9500    33.0250     7.8250 HW1           1 RES     
   10721 HW2         14.7270    32.1440     8.4510 HW2           1 RES     
   10722 OW           9.7890    22.6760     9.5630 OW            1 RES     
   10723 HW1          9.2280    23.1330     8.8740 HW1           1 RES     
   10724 HW2          9.2130    22.0730    10.1170 HW2           1 RES     
   10725 OW          22.4490    31.2290    14.5330 OW            1 RES     
   10726 HW1         22.7610    30.3650    14.9270 HW1           1 RES     
   10727 HW2         22.1980    31.0880    13.5750 HW2           1 RES     
   10728 OW          22.7040    28.2500     5.3240 OW            1 RES     
   10729 HW1         22.2130    28.9450     5.8470 HW1           1 RES     
   10730 HW2         22.5550    27.3520     5.7400 HW2           1 RES     
   10731 OW          15.9570    29.7470     7.5060 OW            1 RES     
   10732 HW1         15.2420    30.0270     8.1460 HW1           1 RES     
   10733 HW2         16.8460    29.7790     7.9640 HW2           1 RES     
   10734 OW          40.3180    16.6990     8.9380 OW            1 RES     
   10735 HW1         40.3350    16.3150     9.8610 HW1           1 RES     
   10736 HW2         40.9260    17.4920     8.8940 HW2           1 RES     
   10737 OW          21.9970    16.2510    18.4170 OW            1 RES     
   10738 HW1         22.0000    15.2520    18.4630 HW1           1 RES     
   10739 HW2         21.0550    16.5840    18.4470 HW2           1 RES     
   10740 OW           3.6840    28.8530    14.0670 OW            1 RES     
   10741 HW1          2.9310    28.1980    14.0100 HW1           1 RES     
   10742 HW2          4.5500    28.3590    14.1490 HW2           1 RES     
   10743 OW           9.3440    20.1000    18.8260 OW            1 RES     
   10744 HW1          8.4490    20.5100    18.6530 HW1           1 RES     
   10745 HW2          9.3920    19.2050    18.3830 HW2           1 RES     
   10746 OW          23.9530    24.4490     6.5950 OW            1 RES     
   10747 HW1         24.0310    25.0540     7.3860 HW1           1 RES     
   10748 HW2         24.2550    23.5290     6.8470 HW2           1 RES     
   10749 OW          24.4590     7.9670    24.0450 OW            1 RES     
   10750 HW1         23.7070     7.5090    23.5730 HW1           1 RES     
   10751 HW2         25.2170     7.3250    24.1670 HW2           1 RES     
   10752 OW           7.8050    38.3450    13.1980 OW            1 RES     
   10753 HW1          7.8930    38.7710    12.2990 HW1           1 RES     
   10754 HW2          6.8950    38.5320    13.5690 HW2           1 RES     
   10755 OW          31.4720    32.9110    18.1430 OW            1 RES     
   10756 HW1         31.9570    32.0420    18.2340 HW1           1 RES     
   10757 HW2         31.9920    33.6330    18.6020 HW2           1 RES     
   10758 OW          24.0750    19.6320     4.4190 OW            1 RES     
   10759 HW1         23.1310    19.3050     4.4050 HW1           1 RES     
   10760 HW2         24.6990    18.8510     4.4470 HW2           1 RES     
   10761 OW          33.6180    30.1350    14.4670 OW            1 RES     
   10762 HW1         33.3770    29.2860    14.9350 HW1           1 RES     
   10763 HW2         34.0230    29.9230    13.5770 HW2           1 RES     
   10764 OW          13.6540    34.1050    18.4860 OW            1 RES     
   10765 HW1         13.4330    34.4280    17.5670 HW1           1 RES     
   10766 HW2         14.6480    34.0550    18.5920 HW2           1 RES     
   10767 OW          35.3400    24.1340     7.4310 OW            1 RES     
   10768 HW1         36.2390    24.3410     7.0480 HW1           1 RES     
   10769 HW2         35.4500    23.6030     8.2720 HW2           1 RES     
   10770 OW          16.1600    23.0280    18.6010 OW            1 RES     
   10771 HW1         16.2930    24.0180    18.6340 HW1           1 RES     
   10772 HW2         16.8450    22.5790    19.1740 HW2           1 RES     
   10773 OW          11.2890    34.9040     7.7130 OW            1 RES     
   10774 HW1         12.2000    35.2990     7.8280 HW1           1 RES     
   10775 HW2         10.6480    35.6190     7.4360 HW2           1 RES     
   10776 OW           8.9760    22.5660    22.9930 OW            1 RES     
   10777 HW1          9.6670    22.9560    22.3860 HW1           1 RES     
   10778 HW2          9.1830    22.8170    23.9390 HW2           1 RES     
   10779 OW           4.8960    11.6740     6.2840 OW            1 RES     
   10780 HW1          4.9530    10.6770     6.3110 HW1           1 RES     
   10781 HW2          3.9350    11.9530     6.2560 HW2           1 RES     
   10782 OW          12.6560    26.3100     5.8890 OW            1 RES     
   10783 HW1         12.6220    25.4970     5.3100 HW1           1 RES     
   10784 HW2         13.2880    26.9760     5.4920 HW2           1 RES     
   10785 OW           6.3480    27.8620    22.8170 OW            1 RES     
   10786 HW1          6.3280    28.7490    23.2760 HW1           1 RES     
   10787 HW2          5.5810    27.3040    23.1340 HW2           1 RES     
   10788 OW          17.1310     9.6670     7.2350 OW            1 RES     
   10789 HW1         16.5660     8.9990     7.7180 HW1           1 RES     
   10790 HW2         17.5780    10.2680     7.8980 HW2           1 RES     
   10791 OW          36.6550    20.7090     4.6360 OW            1 RES     
   10792 HW1         37.5660    21.1150     4.5900 HW1           1 RES     
   10793 HW2         35.9970    21.3970     4.9440 HW2           1 RES     
   10794 OW          16.9700    12.4150    21.4390 OW            1 RES     
   10795 HW1         16.0030    12.1680    21.4790 HW1           1 RES     
   10796 HW2         17.0870    13.3610    21.7420 HW2           1 RES     
   10797 OW          34.8830    27.0830    19.3800 OW            1 RES     
   10798 HW1         35.2460    27.8400    19.9220 HW1           1 RES     
   10799 HW2         35.6250    26.6600    18.8590 HW2           1 RES     
   10800 OW          27.1190    29.9680    19.2280 OW            1 RES     
   10801 HW1         27.5630    30.2120    18.3660 HW1           1 RES     
   10802 HW2         27.0860    30.7690    19.8250 HW2           1 RES     
   10803 OW          33.6700    15.4460    19.2150 OW            1 RES     
   10804 HW1         33.6890    16.3500    18.7890 HW1           1 RES     
   10805 HW2         32.7490    15.0630    19.1450 HW2           1 RES     
   10806 OW          19.1750     8.3170    10.4410 OW            1 RES     
   10807 HW1         20.0660     8.5060    10.8520 HW1           1 RES     
   10808 HW2         18.9930     7.3340    10.4740 HW2           1 RES     
   10809 OW           7.7190    37.8580    23.1920 OW            1 RES     
   10810 HW1          8.4680    37.2620    22.9040 HW1           1 RES     
   10811 HW2          7.5520    37.7350    24.1700 HW2           1 RES     
   10812 OW          26.6050     6.5630     2.6050 OW            1 RES     
   10813 HW1         27.0380     7.4600     2.6890 HW1           1 RES     
   10814 HW2         25.6170     6.6780     2.5010 HW2           1 RES     
   10815 OW          21.3920     9.0230    23.3540 OW            1 RES     
   10816 HW1         22.2520     9.5210    23.2540 HW1           1 RES     
   10817 HW2         21.5820     8.0770    23.6190 HW2           1 RES     
   10818 OW          30.4720    37.5780    20.4240 OW            1 RES     
   10819 HW1         30.4460    36.8340    21.0910 HW1           1 RES     
   10820 HW2         29.5710    37.6760    19.9990 HW2           1 RES     
   10821 OW          39.2100    30.0480    18.9650 OW            1 RES     
   10822 HW1         39.6600    29.2190    18.6350 HW1           1 RES     
   10823 HW2         38.2320    29.8730    19.0810 HW2           1 RES     
   10824 OW          23.7330    36.3910     2.5020 OW            1 RES     
   10825 HW1         23.9860    35.8260     3.2860 HW1           1 RES     
   10826 HW2         22.8760    36.8680     2.6970 HW2           1 RES     
   10827 OW          24.1250    40.5580    18.6740 OW            1 RES     
   10828 HW1         23.1720    40.2570    18.6960 HW1           1 RES     
   10829 HW2         24.7070    39.7990    18.3820 HW2           1 RES     
   10830 OW           6.1960    12.2530     3.0000 OW            1 RES     
   10831 HW1          5.3510    12.0350     2.5140 HW1           1 RES     
   10832 HW2          6.4550    11.4830     3.5840 HW2           1 RES     
   10833 OW          28.0500    12.7420    10.0020 OW            1 RES     
   10834 HW1         28.9730    12.9280     9.6670 HW1           1 RES     
   10835 HW2         27.5660    13.6060    10.1440 HW2           1 RES     
   10836 OW          11.4840    25.2560    13.0300 OW            1 RES     
   10837 HW1         11.6640    24.5440    12.3530 HW1           1 RES     
   10838 HW2         11.8460    24.9720    13.9190 HW2           1 RES     
   10839 OW          31.9260    37.8830    17.8460 OW            1 RES     
   10840 HW1         31.9570    38.4070    16.9950 HW1           1 RES     
   10841 HW2         31.3930    38.3830    18.5280 HW2           1 RES     
   10842 OW          29.6070    32.2540    19.3030 OW            1 RES     
   10843 HW1         28.8830    32.6430    19.8720 HW1           1 RES     
   10844 HW2         29.2950    32.2040    18.3540 HW2           1 RES     
   10845 OW          25.5850    11.1370    20.7070 OW            1 RES     
   10846 HW1         24.6400    10.8300    20.8120 HW1           1 RES     
   10847 HW2         25.6210    12.1350    20.7710 HW2           1 RES     
   10848 OW          16.8060     4.5260     9.9010 OW            1 RES     
   10849 HW1         15.8320     4.7190    10.0130 HW1           1 RES     
   10850 HW2         17.2340     5.2610     9.3750 HW2           1 RES     
   10851 OW          36.3150    23.1390    14.3390 OW            1 RES     
   10852 HW1         36.5850    22.8020    13.4380 HW1           1 RES     
   10853 HW2         37.0730    23.6510    14.7440 HW2           1 RES     
   10854 OW          36.6150    10.4610    21.3320 OW            1 RES     
   10855 HW1         36.9080    11.4020    21.4990 HW1           1 RES     
   10856 HW2         35.6160    10.4230    21.3030 HW2           1 RES     
   10857 OW          21.5130    13.0820    14.4310 OW            1 RES     
   10858 HW1         21.3010    13.9230    13.9350 HW1           1 RES     
   10859 HW2         22.4970    12.9100    14.3920 HW2           1 RES     
   10860 OW          32.7490    20.0400     5.6400 OW            1 RES     
   10861 HW1         33.2980    20.4650     4.9200 HW1           1 RES     
   10862 HW2         31.8870    20.5370     5.7400 HW2           1 RES     
   10863 OW           5.7020     9.7320     9.2110 OW            1 RES     
   10864 HW1          5.5340     9.7440     8.2260 HW1           1 RES     
   10865 HW2          5.0440     9.1240     9.6540 HW2           1 RES     
   10866 OW          38.3010    18.8130     4.5760 OW            1 RES     
   10867 HW1         38.2900    17.8210     4.4560 HW1           1 RES     
   10868 HW2         39.2470    19.1350     4.6090 HW2           1 RES     
   10869 OW          38.8300    35.3400    18.5070 OW            1 RES     
   10870 HW1         39.6340    35.9000    18.7050 HW1           1 RES     
   10871 HW2         39.1010    34.3810    18.4350 HW2           1 RES     
   10872 OW          35.6650    31.0120    23.1350 OW            1 RES     
   10873 HW1         36.4780    31.5730    22.9820 HW1           1 RES     
   10874 HW2         35.6860    30.6400    24.0630 HW2           1 RES     
   10875 OW          19.6580    40.9270     7.4730 OW            1 RES     
   10876 HW1         20.5990    40.6300     7.3180 HW1           1 RES     
   10877 HW2         19.0510    40.4670     6.8240 HW2           1 RES     
   10878 OW          13.1290     9.4170     8.2340 OW            1 RES     
   10879 HW1         12.4590    10.1580     8.2280 HW1           1 RES     
   10880 HW2         12.6980     8.5800     8.5700 HW2           1 RES     
   10881 OW          40.0690     4.0240    20.3880 OW            1 RES     
   10882 HW1         40.7370     3.2800    20.3850 HW1           1 RES     
   10883 HW2         40.4460     4.8090    20.8790 HW2           1 RES     
   10884 OW          29.0420     9.9630    23.6790 OW            1 RES     
   10885 HW1         29.5370     9.2460    24.1690 HW1           1 RES     
   10886 HW2         28.0870     9.6900    23.5630 HW2           1 RES     
   10887 OW          38.8760    25.1160    11.7500 OW            1 RES     
   10888 HW1         39.6590    24.5680    11.4580 HW1           1 RES     
   10889 HW2         38.0290    24.6500    11.4930 HW2           1 RES     
   10890 OW           6.0680    36.4120    11.3150 OW            1 RES     
   10891 HW1          5.5510    36.3230    12.1650 HW1           1 RES     
   10892 HW2          6.6290    37.2400    11.3510 HW2           1 RES     
   10893 OW          38.0700    40.1120     4.7900 OW            1 RES     
   10894 HW1         38.4830    39.4860     5.4500 HW1           1 RES     
   10895 HW2         37.7600    39.5980     3.9900 HW2           1 RES     
   10896 OW          33.9170    27.9860     4.8420 OW            1 RES     
   10897 HW1         32.9290    27.9480     4.9920 HW1           1 RES     
   10898 HW2         34.3780    27.3930     5.5030 HW2           1 RES     
   10899 OW          36.2220    36.1930     8.0960 OW            1 RES     
   10900 HW1         35.5320    36.0450     7.3880 HW1           1 RES     
   10901 HW2         36.8390    36.9280     7.8110 HW2           1 RES     
   10902 OW          35.4970    18.5720    15.8910 OW            1 RES     
   10903 HW1         36.3240    19.0530    16.1810 HW1           1 RES     
   10904 HW2         35.2690    17.8670    16.5630 HW2           1 RES     
   10905 OW          40.9260     8.5100     8.8540 OW            1 RES     
   10906 HW1         40.8710     8.0620     9.7460 HW1           1 RES     
   10907 HW2         40.1800     9.1690     8.7650 HW2           1 RES     
   10908 OW          31.2000    21.9290     7.6910 OW            1 RES     
   10909 HW1         30.2180    22.1170     7.6820 HW1           1 RES     
   10910 HW2         31.5350    21.9510     8.6330 HW2           1 RES     
   10911 OW           7.0250    32.4040    21.9680 OW            1 RES     
   10912 HW1          7.1400    31.4110    21.9730 HW1           1 RES     
   10913 HW2          7.9230    32.8440    21.9560 HW2           1 RES     
   10914 OW          32.5600    27.8400    23.2190 OW            1 RES     
   10915 HW1         31.9530    27.0460    23.1910 HW1           1 RES     
   10916 HW2         32.0160    28.6720    23.3310 HW2           1 RES     
   10917 OW          33.7760    35.2710    15.2500 OW            1 RES     
   10918 HW1         34.6280    35.7930    15.2480 HW1           1 RES     
   10919 HW2         32.9990    35.9000    15.2370 HW2           1 RES     
   10920 OW           9.6260     8.1470    17.3020 OW            1 RES     
   10921 HW1          9.3410     8.3240    18.2430 HW1           1 RES     
   10922 HW2         10.6180     8.2530    17.2270 HW2           1 RES     
   10923 OW           9.9380    36.8300    19.3970 OW            1 RES     
   10924 HW1          9.8920    35.8680    19.6640 HW1           1 RES     
   10925 HW2         10.5440    36.9290    18.6070 HW2           1 RES     
   10926 OW          24.8580    37.0850    15.5270 OW            1 RES     
   10927 HW1         25.3620    36.3200    15.1270 HW1           1 RES     
   10928 HW2         23.9670    36.7660    15.8480 HW2           1 RES     
   10929 OW          38.8890    11.1640    23.2240 OW            1 RES     
   10930 HW1         37.9560    10.8280    23.3460 HW1           1 RES     
   10931 HW2         38.8780    12.1620    23.1620 HW2           1 RES     
   10932 OW           9.1210    10.8510    16.6750 OW            1 RES     
   10933 HW1          8.6150    10.0960    17.0890 HW1           1 RES     
   10934 HW2          8.6860    11.1120    15.8130 HW2           1 RES     
   10935 OW          23.2450    12.0760     5.7610 OW            1 RES     
   10936 HW1         22.6740    12.8400     6.0600 HW1           1 RES     
   10937 HW2         22.7010    11.4520     5.2010 HW2           1 RES     
   10938 OW          16.8820    21.1400    17.5070 OW            1 RES     
   10939 HW1         16.6060    20.1880    17.6340 HW1           1 RES     
   10940 HW2         17.6750    21.1790    16.8980 HW2           1 RES     
   10941 OW          11.7720    30.4160     9.7500 OW            1 RES     
   10942 HW1         10.8670    30.6730    10.0880 HW1           1 RES     
   10943 HW2         12.2860    31.2400     9.5110 HW2           1 RES     
   10944 OW          36.2650    29.8930    20.0780 OW            1 RES     
   10945 HW1         36.2800    29.5480    21.0160 HW1           1 RES     
   10946 HW2         35.3180    30.0350    19.7890 HW2           1 RES     
   10947 OW          14.5480    39.3050    10.0060 OW            1 RES     
   10948 HW1         14.2950    39.4520    10.9610 HW1           1 RES     
   10949 HW2         14.5630    38.3240     9.8120 HW2           1 RES     
   10950 OW          35.0050    11.0910    11.5060 OW            1 RES     
   10951 HW1         35.2860    11.8260    10.8900 HW1           1 RES     
   10952 HW2         35.5610    11.1210    12.3370 HW2           1 RES     
   10953 OW           2.6960    14.0420     7.3300 OW            1 RES     
   10954 HW1          2.5000    14.9910     7.0830 HW1           1 RES     
   10955 HW2          2.5010    13.9040     8.3010 HW2           1 RES     
   10956 OW          27.7090    16.1110    10.4590 OW            1 RES     
   10957 HW1         27.4080    15.7720    11.3500 HW1           1 RES     
   10958 HW2         27.6120    17.1060    10.4310 HW2           1 RES     
   10959 OW           3.7950     8.4860     7.7020 OW            1 RES     
   10960 HW1          3.2740     8.2800     8.5300 HW1           1 RES     
   10961 HW2          3.4220     7.9640     6.9340 HW2           1 RES     
   10962 OW          19.4130    25.7250    22.5940 OW            1 RES     
   10963 HW1         19.8520    26.2600    21.8730 HW1           1 RES     
   10964 HW2         20.1120    25.2510    23.1310 HW2           1 RES     
   10965 OW          24.9200     3.0240    22.7640 OW            1 RES     
   10966 HW1         25.1910     2.5000    23.5710 HW1           1 RES     
   10967 HW2         24.2490     2.5020    22.2360 HW2           1 RES     
   10968 OW          20.1020     7.1010    12.9870 OW            1 RES     
   10969 HW1         20.7910     7.8020    12.8060 HW1           1 RES     
   10970 HW2         19.2800     7.5290    13.3630 HW2           1 RES     
   10971 OW           4.7560     7.2690    12.7470 OW            1 RES     
   10972 HW1          4.8670     8.0610    12.1480 HW1           1 RES     
   10973 HW2          3.7820     7.1100    12.9140 HW2           1 RES     
   10974 OW          38.2170     3.4470     9.7010 OW            1 RES     
   10975 HW1         38.4920     4.4070     9.7210 HW1           1 RES     
   10976 HW2         39.0310     2.8660     9.6910 HW2           1 RES     
   10977 OW           7.0510    17.5580    13.8460 OW            1 RES     
   10978 HW1          7.1160    16.6280    13.4860 HW1           1 RES     
   10979 HW2          7.2710    18.2130    13.1230 HW2           1 RES     
   10980 OW           3.8840    30.9410     3.9420 OW            1 RES     
   10981 HW1          3.5700    31.8720     4.1200 HW1           1 RES     
   10982 HW2          4.3260    30.9030     3.0450 HW2           1 RES     
   10983 OW          22.7300    32.6750    16.6720 OW            1 RES     
   10984 HW1         23.6190    33.0300    16.9620 HW1           1 RES     
   10985 HW2         22.6970    31.6890    16.8310 HW2           1 RES     
   10986 OW          12.1430     4.0540    10.1480 OW            1 RES     
   10987 HW1         12.9910     4.5820    10.1710 HW1           1 RES     
   10988 HW2         11.9220     3.8170     9.2010 HW2           1 RES     
   10989 OW          40.8220     7.7000    14.6710 OW            1 RES     
   10990 HW1         40.8690     8.5770    14.1930 HW1           1 RES     
   10991 HW2         40.9270     7.8500    15.6550 HW2           1 RES     
   10992 OW           3.2400    16.2310     3.9960 OW            1 RES     
   10993 HW1          2.6920    15.5600     4.4930 HW1           1 RES     
   10994 HW2          2.6450    16.9500     3.6390 HW2           1 RES     
   10995 OW          32.0480    26.1420     2.8090 OW            1 RES     
   10996 HW1         31.1180    26.3380     2.5000 HW1           1 RES     
   10997 HW2         32.5050    26.9970     3.0540 HW2           1 RES     
   10998 OW          36.6140    39.9630     7.5580 OW            1 RES     
   10999 HW1         37.4660    39.4430     7.4990 HW1           1 RES     
   11000 HW2         36.7950    40.9250     7.3530 HW2           1 RES     
   11001 OW          24.2230     5.8340    12.6540 OW            1 RES     
   11002 HW1         23.4210     6.4020    12.4700 HW1           1 RES     
   11003 HW2         25.0200     6.2220    12.1910 HW2           1 RES     
   11004 OW          27.9490    27.9930    18.7200 OW            1 RES     
   11005 HW1         28.0250    27.0060    18.5820 HW1           1 RES     
   11006 HW2         28.8340    28.4230    18.5390 HW2           1 RES     
   11007 OW          16.4050    14.4560    19.6120 OW            1 RES     
   11008 HW1         15.7700    13.8060    20.0280 HW1           1 RES     
   11009 HW2         16.2390    15.3690    19.9840 HW2           1 RES     
   11010 OW           5.9800    31.0300    13.8790 OW            1 RES     
   11011 HW1          5.0490    30.6720    13.8100 HW1           1 RES     
   11012 HW2          6.1840    31.2500    14.8330 HW2           1 RES     
   11013 OW          40.3510    29.8810     8.4450 OW            1 RES     
   11014 HW1         40.9270    29.0870     8.2550 HW1           1 RES     
   11015 HW2         40.9270    30.6880     8.5770 HW2           1 RES     
   11016 OW          25.5040    14.7780    12.1450 OW            1 RES     
   11017 HW1         24.5860    15.1590    12.0390 HW1           1 RES     
   11018 HW2         25.4500    13.7800    12.1770 HW2           1 RES     
   11019 OW          13.5550    36.0760     5.4840 OW            1 RES     
   11020 HW1         12.5600    36.0190     5.5610 HW1           1 RES     
   11021 HW2         13.8700    36.9420     5.8740 HW2           1 RES     
   11022 OW          30.2890    20.7280     3.7930 OW            1 RES     
   11023 HW1         30.4190    19.7490     3.6380 HW1           1 RES     
   11024 HW2         31.1740    21.1920     3.7610 HW2           1 RES     
   11025 OW           5.3710     9.5190    18.5710 OW            1 RES     
   11026 HW1          6.0150     9.7340    17.8370 HW1           1 RES     
   11027 HW2          4.5860    10.1350    18.5180 HW2           1 RES     
   11028 OW          21.6090    18.8460    11.0950 OW            1 RES     
   11029 HW1         20.6940    18.4450    11.1480 HW1           1 RES     
   11030 HW2         22.2830    18.1830    11.4230 HW2           1 RES     
   11031 OW           9.4760    15.6980     5.3590 OW            1 RES     
   11032 HW1          9.1120    15.2370     6.1680 HW1           1 RES     
   11033 HW2          9.4900    16.6850     5.5150 HW2           1 RES     
   11034 OW          25.1410     9.7210    15.4020 OW            1 RES     
   11035 HW1         26.0280     9.3480    15.1320 HW1           1 RES     
   11036 HW2         24.4130     9.2440    14.9090 HW2           1 RES     
   11037 OW          21.3880    40.6160    23.2860 OW            1 RES     
   11038 HW1         20.5070    40.3830    22.8750 HW1           1 RES     
   11039 HW2         21.4800    40.1500    24.1660 HW2           1 RES     
   11040 OW          29.8100     4.7380    24.1690 OW            1 RES     
   11041 HW1         30.0990     4.5180    23.2370 HW1           1 RES     
   11042 HW2         28.9230     5.2000    24.1430 HW2           1 RES     
   11043 OW          15.4260    31.6110     5.5020 OW            1 RES     
   11044 HW1         14.4580    31.8340     5.3940 HW1           1 RES     
   11045 HW2         15.9520    32.4540     5.6160 HW2           1 RES     
   11046 OW          36.5790    26.1170    16.2680 OW            1 RES     
   11047 HW1         36.9460    26.0850    17.1970 HW1           1 RES     
   11048 HW2         37.2090    25.6540    15.6440 HW2           1 RES     
   11049 OW           8.4350    27.8100    12.0630 OW            1 RES     
   11050 HW1          8.1360    26.8800    11.8530 HW1           1 RES     
   11051 HW2          7.6370    28.4070    12.1470 HW2           1 RES     
   11052 OW          10.9640    15.7130     9.5810 OW            1 RES     
   11053 HW1         11.2770    14.7730     9.7100 HW1           1 RES     
   11054 HW2         10.7160    16.1070    10.4660 HW2           1 RES     
   11055 OW          20.0460     5.0030    13.6520 OW            1 RES     
   11056 HW1         21.0120     5.1490    13.4410 HW1           1 RES     
   11057 HW2         19.7130     4.2020    13.1540 HW2           1 RES     
   11058 OW          25.8790    15.4610    14.3160 OW            1 RES     
   11059 HW1         26.6080    16.1420    14.3690 HW1           1 RES     
   11060 HW2         25.0200    15.9100    14.0660 HW2           1 RES     
   11061 OW           2.6230     3.2820    19.6730 OW            1 RES     
   11062 HW1          2.5000     3.7100    20.5680 HW1           1 RES     
   11063 HW2          3.1410     3.8960    19.0770 HW2           1 RES     
   11064 OW          11.1090     6.1530    13.9810 OW            1 RES     
   11065 HW1         11.3850     5.9160    13.0500 HW1           1 RES     
   11066 HW2         11.1530     7.1450    14.1000 HW2           1 RES     
   11067 OW          21.7440     2.7800    24.1700 OW            1 RES     
   11068 HW1         22.5430     2.5000    23.6400 HW1           1 RES     
   11069 HW2         20.9110     2.5000    23.6920 HW2           1 RES     
   11070 OW          40.1110    34.5490    13.3640 OW            1 RES     
   11071 HW1         39.8600    33.8600    14.0440 HW1           1 RES     
   11072 HW2         39.5650    35.3750    13.5090 HW2           1 RES     
   11073 OW          21.2040    23.1850     3.6360 OW            1 RES     
   11074 HW1         20.7930    23.9660     4.1060 HW1           1 RES     
   11075 HW2         21.4080    23.4350     2.6890 HW2           1 RES     
   11076 OW          38.7940    20.9940     8.6270 OW            1 RES     
   11077 HW1         37.9260    20.5350     8.8170 HW1           1 RES     
   11078 HW2         38.7160    21.9640     8.8560 HW2           1 RES     
   11079 OW          34.9170    20.8360    14.9920 OW            1 RES     
   11080 HW1         35.0160    20.1440    14.2780 HW1           1 RES     
   11081 HW2         34.3790    20.4610    15.7480 HW2           1 RES     
   11082 OW          24.8500    40.8060     5.0660 OW            1 RES     
   11083 HW1         25.0720    40.9260     6.0330 HW1           1 RES     
   11084 HW2         24.2380    40.0230     4.9580 HW2           1 RES     
   11085 OW           3.2660    31.8260    14.8410 OW            1 RES     
   11086 HW1          2.5000    32.3410    15.2260 HW1           1 RES     
   11087 HW2          2.9690    31.3590    14.0080 HW2           1 RES     
   11088 OW          36.1800    26.7770    23.5170 OW            1 RES     
   11089 HW1         36.4780    25.8320    23.6510 HW1           1 RES     
   11090 HW2         36.5770    27.1350    22.6720 HW2           1 RES     
   11091 OW          38.6510     6.8600    16.6380 OW            1 RES     
   11092 HW1         39.5380     6.9320    17.0930 HW1           1 RES     
   11093 HW2         38.1560     7.7250    16.7310 HW2           1 RES     
   11094 OW          27.8110     2.5000    22.9410 OW            1 RES     
   11095 HW1         27.3770     2.5010    23.8410 HW1           1 RES     
   11096 HW2         28.7890     2.6860    23.0410 HW2           1 RES     
   11097 OW          31.4510     5.9760    13.0510 OW            1 RES     
   11098 HW1         30.9690     6.5060    12.3550 HW1           1 RES     
   11099 HW2         31.6530     5.0630    12.6960 HW2           1 RES     
   11100 OW          11.5790    15.5010     7.3280 OW            1 RES     
   11101 HW1         10.8980    16.2270     7.2400 HW1           1 RES     
   11102 HW2         11.1170    14.6230     7.4560 HW2           1 RES     
   11103 OW           4.5320    15.6390     9.1020 OW            1 RES     
   11104 HW1          4.2960    14.6890     9.3020 HW1           1 RES     
   11105 HW2          4.1580    15.8960     8.2100 HW2           1 RES     
   11106 OW          28.8700     8.1780    10.5210 OW            1 RES     
   11107 HW1         29.0390     7.8300     9.5990 HW1           1 RES     
   11108 HW2         29.7370     8.4490    10.9390 HW2           1 RES     
   11109 OW          40.9270    26.5480    15.7330 OW            1 RES     
   11110 HW1         40.7000    27.2730    16.3830 HW1           1 RES     
   11111 HW2         40.3240    26.6120    14.9380 HW2           1 RES     
   11112 OW           3.3790    23.8070     5.6080 OW            1 RES     
   11113 HW1          2.5010    24.1180     5.2470 HW1           1 RES     
   11114 HW2          3.3790    22.8090     5.6720 HW2           1 RES     
   11115 OW          25.9290     9.6520     4.5980 OW            1 RES     
   11116 HW1         26.1900     9.6010     3.6350 HW1           1 RES     
   11117 HW2         26.6700     9.2920     5.1650 HW2           1 RES     
   11118 OW          40.4020     9.2190    22.0250 OW            1 RES     
   11119 HW1         39.6650     8.5960    21.7640 HW1           1 RES     
   11120 HW2         40.2640    10.1040    21.5800 HW2           1 RES     
   11121 OW           7.4580    29.7420     7.1490 OW            1 RES     
   11122 HW1          7.7650    28.7920     7.1110 HW1           1 RES     
   11123 HW2          6.4590    29.7720     7.1170 HW2           1 RES     
   11124 OW          18.4300     4.3250    11.3710 OW            1 RES     
   11125 HW1         18.7030     5.2290    11.0410 HW1           1 RES     
   11126 HW2         17.6140     4.4110    11.9440 HW2           1 RES     
   11127 OW          17.7440    26.7880     7.5290 OW            1 RES     
   11128 HW1         18.6470    27.0580     7.8630 HW1           1 RES     
   11129 HW2         17.0750    27.4920     7.7670 HW2           1 RES     
   11130 OW          24.8900    37.1000    21.4000 OW            1 RES     
   11131 HW1         25.7290    37.1780    21.9370 HW1           1 RES     
   11132 HW2         25.0960    37.2560    20.4340 HW2           1 RES     
   11133 OW          25.6490    32.4920     3.2180 OW            1 RES     
   11134 HW1         25.5060    32.1800     4.1560 HW1           1 RES     
   11135 HW2         26.6240    32.6630     3.0680 HW2           1 RES     
   11136 OW          20.1760    11.6640     9.0220 OW            1 RES     
   11137 HW1         19.7060    12.3830     8.5110 HW1           1 RES     
   11138 HW2         19.6050    11.3720     9.7900 HW2           1 RES     
   11139 OW          20.8510    32.4100    22.4340 OW            1 RES     
   11140 HW1         21.8010    32.3730    22.1260 HW1           1 RES     
   11141 HW2         20.2900    31.8150    21.8590 HW2           1 RES     
   11142 OW           9.3150    37.1720     8.9570 OW            1 RES     
   11143 HW1          9.5620    37.4410     8.0270 HW1           1 RES     
   11144 HW2         10.0160    36.5600     9.3240 HW2           1 RES     
   11145 OW          23.0290    23.8600    14.4880 OW            1 RES     
   11146 HW1         23.6910    23.4890    15.1390 HW1           1 RES     
   11147 HW2         22.8280    23.1740    13.7890 HW2           1 RES     
   11148 OW          19.7920    37.5610     9.8530 OW            1 RES     
   11149 HW1         20.2930    37.1190    10.5960 HW1           1 RES     
   11150 HW2         20.4320    37.8310     9.1340 HW2           1 RES     
   11151 OW          11.1160     9.5610    23.8770 OW            1 RES     
   11152 HW1         10.3790     8.9540    24.1700 HW1           1 RES     
   11153 HW2         10.7330    10.3260    23.3580 HW2           1 RES     
   11154 OW           8.5600    15.1500     9.4400 OW            1 RES     
   11155 HW1          8.7040    16.1300     9.5780 HW1           1 RES     
   11156 HW2          9.1150    14.6360    10.0940 HW2           1 RES     
   11157 OW          11.6410     3.5330     4.1720 OW            1 RES     
   11158 HW1         11.2630     2.6120     4.0840 HW1           1 RES     
   11159 HW2         12.6100     3.5220     3.9240 HW2           1 RES     
   11160 OW          15.8930    29.4690    20.0440 OW            1 RES     
   11161 HW1         15.1740    29.0170    19.5170 HW1           1 RES     
   11162 HW2         16.5470    28.7870    20.3710 HW2           1 RES     
   11163 OW          40.9270    21.0320     9.4550 OW            1 RES     
   11164 HW1         40.9040    21.7580     8.7690 HW1           1 RES     
   11165 HW2         40.3050    21.2600    10.2040 HW2           1 RES     
   11166 OW           7.4980     7.6550     6.8470 OW            1 RES     
   11167 HW1          8.2200     7.3830     7.4820 HW1           1 RES     
   11168 HW2          6.8030     8.1820     7.3370 HW2           1 RES     
   11169 OW          33.7020    22.5920    12.6880 OW            1 RES     
   11170 HW1         34.5850    22.1390    12.8040 HW1           1 RES     
   11171 HW2         32.9660    21.9390    12.8690 HW2           1 RES     
   11172 OW          12.9890    24.9530     3.2100 OW            1 RES     
   11173 HW1         12.0200    24.8020     3.0180 HW1           1 RES     
   11174 HW2         13.4490    24.0720     3.3220 HW2           1 RES     
   11175 OW          11.5870    32.1840     3.9070 OW            1 RES     
   11176 HW1         12.3500    31.9310     4.5000 HW1           1 RES     
   11177 HW2         10.7340    32.1510     4.4280 HW2           1 RES     
   11178 OW          33.2480     3.8830    21.9390 OW            1 RES     
   11179 HW1         32.7030     3.4910    22.6800 HW1           1 RES     
   11180 HW2         33.7760     4.6580    22.2870 HW2           1 RES     
   11181 OW          32.6020    14.3900    15.8370 OW            1 RES     
   11182 HW1         33.0840    13.5330    15.6600 HW1           1 RES     
   11183 HW2         32.3410    14.4330    16.8020 HW2           1 RES     
   11184 OW          34.9310    33.3280    17.3360 OW            1 RES     
   11185 HW1         33.9480    33.1540    17.3700 HW1           1 RES     
   11186 HW2         35.0940    34.3090    17.2360 HW2           1 RES     
   11187 OW          22.8380    31.1980     5.7710 OW            1 RES     
   11188 HW1         23.2770    32.0800     5.9390 HW1           1 RES     
   11189 HW2         21.9950    31.3380     5.2520 HW2           1 RES     
   11190 OW          11.8230     3.9250    14.0110 OW            1 RES     
   11191 HW1         10.8750     3.7180    14.2530 HW1           1 RES     
   11192 HW2         12.0640     3.4460    13.1670 HW2           1 RES     
   11193 OW          33.5910    32.6650     9.6650 OW            1 RES     
   11194 HW1         34.0820    33.5360     9.6870 HW1           1 RES     
   11195 HW2         34.0230    32.0550     9.0000 HW2           1 RES     
   11196 OW           2.9440    16.2560    20.0270 OW            1 RES     
   11197 HW1          3.4820    16.7070    20.7390 HW1           1 RES     
   11198 HW2          2.5010    16.9470    19.4550 HW2           1 RES     
   11199 OW          37.7180    35.3880    23.6660 OW            1 RES     
   11200 HW1         37.2160    34.6850    24.1700 HW1           1 RES     
   11201 HW2         38.6130    35.5280    24.0910 HW2           1 RES     
   11202 OW          15.4060    23.6400    10.6730 OW            1 RES     
   11203 HW1         16.2180    23.0580    10.7010 HW1           1 RES     
   11204 HW2         15.4770    24.2770     9.9050 HW2           1 RES     
   11205 OW          37.9280    21.8890    11.1490 OW            1 RES     
   11206 HW1         38.3790    21.0100    11.2950 HW1           1 RES     
   11207 HW2         38.6160    22.5910    10.9630 HW2           1 RES     
   11208 OW          33.8680    25.8090    23.4670 OW            1 RES     
   11209 HW1         34.0370    24.8890    23.8180 HW1           1 RES     
   11210 HW2         34.1000    26.4820    24.1700 HW2           1 RES     
   11211 OW          12.9750    22.0690     7.3570 OW            1 RES     
   11212 HW1         13.0730    22.6910     6.5810 HW1           1 RES     
   11213 HW2         13.6250    21.3140     7.2640 HW2           1 RES     
   11214 OW           3.1590    12.3660    21.4640 OW            1 RES     
   11215 HW1          2.9530    11.3910    21.3860 HW1           1 RES     
   11216 HW2          4.1490    12.4960    21.5100 HW2           1 RES     
   11217 OW          26.4470    11.7760    23.1770 OW            1 RES     
   11218 HW1         26.5430    12.7420    22.9400 HW1           1 RES     
   11219 HW2         26.3700    11.6830    24.1700 HW2           1 RES     
   11220 OW          11.4780    30.0010    16.5100 OW            1 RES     
   11221 HW1         12.3140    30.2200    16.0080 HW1           1 RES     
   11222 HW2         10.9680    30.8430    16.6910 HW2           1 RES     
   11223 OW          17.4680    27.5110     5.4700 OW            1 RES     
   11224 HW1         17.4970    26.5380     5.2420 HW1           1 RES     
   11225 HW2         17.5720    28.0520     4.6350 HW2           1 RES     
   11226 OW          16.8160    21.0650     5.3910 OW            1 RES     
   11227 HW1         15.8640    21.0460     5.0890 HW1           1 RES     
   11228 HW2         17.0900    20.1500     5.6890 HW2           1 RES     
   11229 OW          17.4300    11.1330     5.4120 OW            1 RES     
   11230 HW1         17.4890    11.7130     6.2230 HW1           1 RES     
   11231 HW2         18.2480    10.5610     5.3500 HW2           1 RES     
   11232 OW          38.1590    35.7280    11.0230 OW            1 RES     
   11233 HW1         38.1580    36.4160    11.7490 HW1           1 RES     
   11234 HW2         38.9880    35.1720    11.0920 HW2           1 RES     
   11235 OW          25.5800    26.2990    18.3680 OW            1 RES     
   11236 HW1         24.9380    25.6460    18.7670 HW1           1 RES     
   11237 HW2         26.2570    25.8090    17.8180 HW2           1 RES     
   11238 OW          39.1600    32.1330    10.0380 OW            1 RES     
   11239 HW1         39.8810    32.5980     9.5260 HW1           1 RES     
   11240 HW2         39.1770    31.1560     9.8250 HW2           1 RES     
   11241 OW          40.2890    24.4590    15.9930 OW            1 RES     
   11242 HW1         40.4280    24.7700    16.9330 HW1           1 RES     
   11243 HW2         39.4350    23.9400    15.9360 HW2           1 RES     
   11244 OW          23.3440    37.2810    10.7850 OW            1 RES     
   11245 HW1         23.2860    36.2930    10.9200 HW1           1 RES     
   11246 HW2         22.4250    37.6580    10.6730 HW2           1 RES     
   11247 OW           7.6210    14.3370    20.8030 OW            1 RES     
   11248 HW1          7.9300    13.9130    21.6530 HW1           1 RES     
   11249 HW2          7.5700    15.3290    20.9240 HW2           1 RES     
   11250 OW          37.7330    11.8620     2.7600 OW            1 RES     
   11251 HW1         37.5290    12.8370     2.8450 HW1           1 RES     
   11252 HW2         38.6910    11.7430     2.5000 HW2           1 RES     
   11253 OW           5.0800    27.3120    12.2880 OW            1 RES     
   11254 HW1          5.9540    26.8540    12.1310 HW1           1 RES     
   11255 HW2          4.9460    28.0230    11.5970 HW2           1 RES     
   11256 OW          28.1420    36.8960     2.5970 OW            1 RES     
   11257 HW1         28.4130    37.8530     2.5000 HW1           1 RES     
   11258 HW2         28.9480    36.3390     2.7950 HW2           1 RES     
   11259 OW          35.9160    24.4390    19.3790 OW            1 RES     
   11260 HW1         36.8840    24.2020    19.4580 HW1           1 RES     
   11261 HW2         35.5680    24.1290    18.4940 HW2           1 RES     
   11262 OW           8.5190    16.9450    11.6620 OW            1 RES     
   11263 HW1          7.5790    16.8300    11.3430 HW1           1 RES     
   11264 HW2          8.9470    16.0480    11.7720 HW2           1 RES     
   11265 OW           6.2610     8.7500    15.8450 OW            1 RES     
   11266 HW1          6.8420     7.9370    15.8530 HW1           1 RES     
   11267 HW2          6.8330     9.5690    15.8010 HW2           1 RES     
   11268 OW           7.6900    26.4320     6.3700 OW            1 RES     
   11269 HW1          6.9260    26.7670     6.9200 HW1           1 RES     
   11270 HW2          7.3830    25.6650     5.8050 HW2           1 RES     
   11271 OW          33.8180    12.3850    13.1490 OW            1 RES     
   11272 HW1         32.9800    12.7130    13.5840 HW1           1 RES     
   11273 HW2         34.1320    13.0580    12.4780 HW2           1 RES     
   11274 OW          29.0860    26.9470     6.2670 OW            1 RES     
   11275 HW1         29.6360    27.7660     6.4240 HW1           1 RES     
   11276 HW2         28.1550    27.2130     6.0140 HW2           1 RES     
   11277 OW          27.3740    20.1450    17.0710 OW            1 RES     
   11278 HW1         27.3080    19.1480    17.0500 HW1           1 RES     
   11279 HW2         26.4550    20.5400    17.0870 HW2           1 RES     
   11280 OW          17.8780    38.4990     9.2120 OW            1 RES     
   11281 HW1         16.8800    38.5560     9.2500 HW1           1 RES     
   11282 HW2         18.2740    39.1530     9.8560 HW2           1 RES     
   11283 OW          39.3010    37.2370     7.2270 OW            1 RES     
   11284 HW1         39.3420    38.2290     7.1120 HW1           1 RES     
   11285 HW2         40.2240    36.8560     7.1660 HW2           1 RES     
   11286 OW          29.2900     8.1370    20.2180 OW            1 RES     
   11287 HW1         29.0420     8.9210    19.6500 HW1           1 RES     
   11288 HW2         29.8800     7.5200    19.6970 HW2           1 RES     
   11289 OW          21.5240    38.6910     4.7900 OW            1 RES     
   11290 HW1         22.1200    39.4380     5.0810 HW1           1 RES     
   11291 HW2         21.8000    38.3790     3.8800 HW2           1 RES     
   11292 OW          21.7000    33.3580    19.6520 OW            1 RES     
   11293 HW1         20.8940    32.9340    20.0640 HW1           1 RES     
   11294 HW2         22.5210    33.0600    20.1400 HW2           1 RES     
   11295 OW          15.6610    26.1720     2.5900 OW            1 RES     
   11296 HW1         15.0210    25.4100     2.5000 HW1           1 RES     
   11297 HW2         15.1770    26.9760     2.9350 HW2           1 RES     
   11298 OW          26.0530    28.1050     2.5000 OW            1 RES     
   11299 HW1         25.7620    28.9560     2.9360 HW1           1 RES     
   11300 HW2         26.1820    27.3990     3.1970 HW2           1 RES     
   11301 OW          34.0760     7.4610    23.3930 OW            1 RES     
   11302 HW1         33.3860     6.7520    23.2570 HW1           1 RES     
   11303 HW2         34.9830     7.0410    23.4370 HW2           1 RES     
   11304 OW          16.6250    31.6780     3.3370 OW            1 RES     
   11305 HW1         15.8270    32.2730     3.4250 HW1           1 RES     
   11306 HW2         17.1210    31.9070     2.5000 HW2           1 RES     
   11307 OW          14.6880    15.3680    18.4240 OW            1 RES     
   11308 HW1         15.0860    15.6480    17.5500 HW1           1 RES     
   11309 HW2         13.7020    15.5340    18.4100 HW2           1 RES     
   11310 OW           6.5690    34.9650    22.9120 OW            1 RES     
   11311 HW1          6.8870    35.8010    23.3590 HW1           1 RES     
   11312 HW2          5.6100    34.8040    23.1470 HW2           1 RES     
   11313 OW          22.2110    38.7080    16.0240 OW            1 RES     
   11314 HW1         22.4050    38.1740    15.2020 HW1           1 RES     
   11315 HW2         21.2230    38.7390    16.1770 HW2           1 RES     
   11316 OW          18.2870    15.6320    20.7660 OW            1 RES     
   11317 HW1         18.4140    14.6840    20.4780 HW1           1 RES     
   11318 HW2         18.8270    15.8060    21.5900 HW2           1 RES     
   11319 OW          31.0780    30.4220     4.0040 OW            1 RES     
   11320 HW1         31.8660    30.2430     3.4150 HW1           1 RES     
   11321 HW2         30.3130    30.7470     3.4470 HW2           1 RES     
   11322 OW          30.9380    37.6280     2.7080 OW            1 RES     
   11323 HW1         31.9100    37.7310     2.5000 HW1           1 RES     
   11324 HW2         30.5050    38.5290     2.7380 HW2           1 RES     
   11325 OW          39.7480     6.5420    11.9220 OW            1 RES     
   11326 HW1         39.1050     6.0960    11.3000 HW1           1 RES     
   11327 HW2         39.8930     7.4870    11.6310 HW2           1 RES     
   11328 OW           4.6100    25.5080    18.7530 OW            1 RES     
   11329 HW1          3.9740    25.8540    18.0640 HW1           1 RES     
   11330 HW2          4.6030    26.1150    19.5480 HW2           1 RES     
   11331 OW          27.5840    23.0780    19.3460 OW            1 RES     
   11332 HW1         27.2820    23.8240    18.7540 HW1           1 RES     
   11333 HW2         28.5590    22.9080    19.1990 HW2           1 RES     
   11334 OW          14.2430    15.2980    21.7960 OW            1 RES     
   11335 HW1         14.9790    14.8680    22.3180 HW1           1 RES     
   11336 HW2         14.0280    14.7360    20.9970 HW2           1 RES     
   11337 OW          11.1060    10.8000    18.5570 OW            1 RES     
   11338 HW1         11.0900    11.1350    17.6150 HW1           1 RES     
   11339 HW2         11.3640     9.8330    18.5630 HW2           1 RES     
   11340 OW           5.5530    38.4710    15.3110 OW            1 RES     
   11341 HW1          5.9840    39.0860    15.9710 HW1           1 RES     
   11342 HW2          4.5640    38.4580    15.4630 HW2           1 RES     
   11343 OW          28.3960    27.1090     9.4760 OW            1 RES     
   11344 HW1         27.8170    27.6260     8.8470 HW1           1 RES     
   11345 HW2         29.3530    27.3680     9.3380 HW2           1 RES     
   11346 OW          31.8380    27.7280    13.6400 OW            1 RES     
   11347 HW1         32.0420    27.3960    12.7190 HW1           1 RES     
   11348 HW2         31.2080    27.0950    14.0910 HW2           1 RES     
   11349 OW          17.8880    32.4950     6.6620 OW            1 RES     
   11350 HW1         17.4860    31.6300     6.9610 HW1           1 RES     
   11351 HW2         18.8300    32.3400     6.3620 HW2           1 RES     
   11352 OW          23.4350    30.0210    19.8300 OW            1 RES     
   11353 HW1         23.3920    29.1800    19.2910 HW1           1 RES     
   11354 HW2         23.5630    30.8020    19.2180 HW2           1 RES     
   11355 OW          28.0540    35.6540    20.2560 OW            1 RES     
   11356 HW1         28.0950    34.6580    20.3170 HW1           1 RES     
   11357 HW2         27.1100    35.9400    20.0900 HW2           1 RES     
   11358 OW          30.3370    25.6320     4.8040 OW            1 RES     
   11359 HW1         30.8970    24.8580     5.0990 HW1           1 RES     
   11360 HW2         30.9170    26.4390     4.6880 HW2           1 RES     
   11361 OW           7.9420     9.7720     6.3290 OW            1 RES     
   11362 HW1          7.1770    10.4120     6.3930 HW1           1 RES     
   11363 HW2          8.8040    10.2750     6.3900 HW2           1 RES     
   11364 OW          30.3590    14.8810    11.1120 OW            1 RES     
   11365 HW1         29.5950    15.4590    11.3960 HW1           1 RES     
   11366 HW2         31.1680    15.4490    10.9580 HW2           1 RES     
   11367 OW          17.8550    40.3510    22.6560 OW            1 RES     
   11368 HW1         18.3560    40.9270    22.0110 HW1           1 RES     
   11369 HW2         17.4070    40.9270    23.3400 HW2           1 RES     
   11370 OW          29.3310     3.7180    14.7220 OW            1 RES     
   11371 HW1         30.1070     3.0890    14.7500 HW1           1 RES     
   11372 HW2         28.4850     3.2130    14.8940 HW2           1 RES     
   11373 OW          12.7950    14.4750     5.0200 OW            1 RES     
   11374 HW1         13.0820    15.1140     5.7330 HW1           1 RES     
   11375 HW2         13.5250    13.8130     4.8510 HW2           1 RES     
   11376 OW          25.4680    17.2580    12.3540 OW            1 RES     
   11377 HW1         24.9650    18.1210    12.3210 HW1           1 RES     
   11378 HW2         26.4490    17.4450    12.4080 HW2           1 RES     
   11379 OW          30.8840    38.5660     8.3180 OW            1 RES     
   11380 HW1         30.3530    37.7580     8.0640 HW1           1 RES     
   11381 HW2         31.8260    38.2980     8.5180 HW2           1 RES     
   11382 OW          21.4590    34.0000    14.9620 OW            1 RES     
   11383 HW1         21.1640    33.0470    15.0140 HW1           1 RES     
   11384 HW2         22.4350    34.0370    14.7450 HW2           1 RES     
   11385 OW          25.0410    30.9690    16.0920 OW            1 RES     
   11386 HW1         25.9240    30.5200    15.9560 HW1           1 RES     
   11387 HW2         24.6340    30.6510    16.9490 HW2           1 RES     
   11388 OW          20.4770    26.7130    19.4390 OW            1 RES     
   11389 HW1         19.5180    26.8950    19.2250 HW1           1 RES     
   11390 HW2         20.5950    25.7430    19.6500 HW2           1 RES     
   11391 OW          17.8270    21.1580    11.6040 OW            1 RES     
   11392 HW1         17.2850    21.7780    12.1700 HW1           1 RES     
   11393 HW2         17.4120    21.0870    10.6970 HW2           1 RES     
   11394 OW          20.7760    36.4580    19.2810 OW            1 RES     
   11395 HW1         21.4270    35.7030    19.2150 HW1           1 RES     
   11396 HW2         19.8430    36.1000    19.2400 HW2           1 RES     
   11397 OW          32.1280    39.5500    20.7550 OW            1 RES     
   11398 HW1         32.6790    38.8960    20.2370 HW1           1 RES     
   11399 HW2         31.2340    39.6530    20.3170 HW2           1 RES     
   11400 OW          17.7310    16.0240     3.6540 OW            1 RES     
   11401 HW1         17.2630    16.8940     3.8020 HW1           1 RES     
   11402 HW2         17.0550    15.3030     3.4990 HW2           1 RES     
   11403 OW          38.5550    15.3190    16.5940 OW            1 RES     
   11404 HW1         39.2130    14.7430    16.1100 HW1           1 RES     
   11405 HW2         38.8700    15.4710    17.5310 HW2           1 RES     
   11406 OW          19.9640     2.5000    10.4890 OW            1 RES     
   11407 HW1         18.9900     2.5070    10.2660 HW1           1 RES     
   11408 HW2         20.1020     2.8960    11.3970 HW2           1 RES     
   11409 OW          22.2110     6.8400    10.5830 OW            1 RES     
   11410 HW1         22.9150     6.1910    10.2980 HW1           1 RES     
   11411 HW2         21.3180     6.3910    10.5720 HW2           1 RES     
   11412 OW           5.9760     6.5190    20.9050 OW            1 RES     
   11413 HW1          6.4000     6.6150    21.8050 HW1           1 RES     
   11414 HW2          6.6570     6.1950    20.2480 HW2           1 RES     
   11415 OW          39.1870    21.8890    19.7060 OW            1 RES     
   11416 HW1         39.3120    22.8570    19.4890 HW1           1 RES     
   11417 HW2         39.9440    21.3600    19.3210 HW2           1 RES     
   11418 OW           6.4790    31.1340    11.6380 OW            1 RES     
   11419 HW1          6.3420    30.1590    11.8120 HW1           1 RES     
   11420 HW2          5.6210    31.6250    11.7910 HW2           1 RES     
   11421 OW           3.6980    19.0910     3.1740 OW            1 RES     
   11422 HW1          4.3330    19.7370     3.5950 HW1           1 RES     
   11423 HW2          3.1330    19.5690     2.5010 HW2           1 RES     
   11424 OW          28.4450    32.3940     4.2830 OW            1 RES     
   11425 HW1         29.1110    32.0080     4.9200 HW1           1 RES     
   11426 HW2         28.8100    32.3530     3.3520 HW2           1 RES     
   11427 OW          21.9850    34.8980     3.1010 OW            1 RES     
   11428 HW1         22.5100    34.0780     2.8770 HW1           1 RES     
   11429 HW2         21.1870    34.9570     2.5000 HW2           1 RES     
   11430 OW           6.8230    35.1550     7.9730 OW            1 RES     
   11431 HW1          7.2770    35.8780     8.4930 HW1           1 RES     
   11432 HW2          5.8940    35.4440     7.7400 HW2           1 RES     
   11433 OW          16.4630     5.6600    13.3420 OW            1 RES     
   11434 HW1         16.0500     6.3670    13.9140 HW1           1 RES     
   11435 HW2         15.8900     4.8410    13.3570 HW2           1 RES     
   11436 OW          37.1160     5.0310    17.0870 OW            1 RES     
   11437 HW1         37.8270     5.1500    17.7790 HW1           1 RES     
   11438 HW2         37.1840     4.1140    16.6920 HW2           1 RES     
   11439 OW           3.4310    28.4170    21.7930 OW            1 RES     
   11440 HW1          4.3500    28.3730    21.4030 HW1           1 RES     
   11441 HW2          3.4750    28.8150    22.7090 HW2           1 RES     
   11442 OW          29.0170    33.1090    10.7510 OW            1 RES     
   11443 HW1         29.8860    32.7360    10.4280 HW1           1 RES     
   11444 HW2         28.5490    32.4270    11.3130 HW2           1 RES     
   11445 OW           9.5250    10.2060    11.7530 OW            1 RES     
   11446 HW1          9.0130     9.4080    12.0680 HW1           1 RES     
   11447 HW2         10.4530     9.9290    11.5000 HW2           1 RES     
   11448 OW          26.7980    11.1190    11.6200 OW            1 RES     
   11449 HW1         26.5570    10.1570    11.4980 HW1           1 RES     
   11450 HW2         27.7940    11.2160    11.6230 HW2           1 RES     
   11451 OW          35.2620     4.3850     2.6300 OW            1 RES     
   11452 HW1         35.3530     3.3960     2.7420 HW1           1 RES     
   11453 HW2         36.1660     4.7910     2.5000 HW2           1 RES     
   11454 OW          26.4770     7.0480    22.3770 OW            1 RES     
   11455 HW1         25.6530     7.4780    22.0100 HW1           1 RES     
   11456 HW2         27.1880     7.0340    21.6740 HW2           1 RES     
   11457 OW          20.4800    36.7120    15.7540 OW            1 RES     
   11458 HW1         21.1690    36.1570    15.2890 HW1           1 RES     
   11459 HW2         19.8490    36.1140    16.2490 HW2           1 RES     
   11460 OW          19.0370    17.6360    13.1390 OW            1 RES     
   11461 HW1         18.2350    18.2330    13.1310 HW1           1 RES     
   11462 HW2         19.7690    18.0680    13.6670 HW2           1 RES     
   11463 OW          36.9140     7.9190    20.4570 OW            1 RES     
   11464 HW1         37.6160     8.3910    20.9890 HW1           1 RES     
   11465 HW2         36.0430     8.4000    20.5530 HW2           1 RES     
   11466 OW          12.4400    32.3990    22.6020 OW            1 RES     
   11467 HW1         11.6890    33.0570    22.5780 HW1           1 RES     
   11468 HW2         13.2850    32.8650    22.8630 HW2           1 RES     
   11469 OW           8.9030    25.2930    10.4980 OW            1 RES     
   11470 HW1          8.3460    24.4630    10.4850 HW1           1 RES     
   11471 HW2          9.5680    25.2380    11.2430 HW2           1 RES     
   11472 OW           8.1610    20.8360    14.7650 OW            1 RES     
   11473 HW1          8.5690    21.6220    14.3020 HW1           1 RES     
   11474 HW2          8.8830    20.2150    15.0690 HW2           1 RES     
   11475 OW          39.3230    27.2200     4.7130 OW            1 RES     
   11476 HW1         39.7210    26.3050     4.7680 HW1           1 RES     
   11477 HW2         39.0800    27.4230     3.7640 HW2           1 RES     
   11478 OW          14.6430     4.4470     5.8470 OW            1 RES     
   11479 HW1         13.8790     5.0870     5.9280 HW1           1 RES     
   11480 HW2         15.5050     4.9540     5.8490 HW2           1 RES     
   11481 OW          33.2940    13.4790    24.1700 OW            1 RES     
   11482 HW1         34.1960    13.9050    24.1190 HW1           1 RES     
   11483 HW2         33.0320    13.1420    23.2650 HW2           1 RES     
   11484 OW          21.5820    18.6900    17.0430 OW            1 RES     
   11485 HW1         21.9910    19.6010    17.0040 HW1           1 RES     
   11486 HW2         22.3040    18.0020    17.1210 HW2           1 RES     
   11487 OW          11.5760     3.0850    16.7560 OW            1 RES     
   11488 HW1         12.2610     2.5530    16.2590 HW1           1 RES     
   11489 HW2         11.8200     3.1210    17.7250 HW2           1 RES     
   11490 OW          31.9870    35.3030    13.3770 OW            1 RES     
   11491 HW1         32.9260    34.9960    13.2220 HW1           1 RES     
   11492 HW2         31.9520    36.3010    13.3410 HW2           1 RES     
   11493 OW          36.1780     6.6250    10.3010 OW            1 RES     
   11494 HW1         35.2990     6.1530    10.3600 HW1           1 RES     
   11495 HW2         36.4840     6.8770    11.2190 HW2           1 RES     
   11496 OW           6.2200    18.7570     3.0310 OW            1 RES     
   11497 HW1          6.8530    18.1950     2.5000 HW1           1 RES     
   11498 HW2          6.4060    19.7240     2.8580 HW2           1 RES     
   11499 OW          21.1330     4.7220    23.3370 OW            1 RES     
   11500 HW1         20.2450     5.1000    23.0760 HW1           1 RES     
   11501 HW2         21.5470     4.2680    22.5480 HW2           1 RES     
   11502 OW          21.0370    34.2980     8.0790 OW            1 RES     
   11503 HW1         20.8160    35.2690     8.1630 HW1           1 RES     
   11504 HW2         21.9700    34.1380     8.4010 HW2           1 RES     
   11505 OW          37.3920    40.2560    23.4750 OW            1 RES     
   11506 HW1         38.1200    40.9270    23.3370 HW1           1 RES     
   11507 HW2         36.5130    40.7270    23.5510 HW2           1 RES     
   11508 OW          25.3430    17.4860    21.0980 OW            1 RES     
   11509 HW1         26.0640    16.8270    20.8810 HW1           1 RES     
   11510 HW2         25.5450    18.3590    20.6550 HW2           1 RES     
   11511 OW          28.9300     8.4880    14.6430 OW            1 RES     
   11512 HW1         29.5430     8.3940    13.8590 HW1           1 RES     
   11513 HW2         28.1600     9.0770    14.3950 HW2           1 RES     
   11514 OW          36.5390    29.5410    14.0240 OW            1 RES     
   11515 HW1         35.8620    28.8060    14.0390 HW1           1 RES     
   11516 HW2         37.4580    29.1490    14.0750 HW2           1 RES     
   11517 OW          14.6210     6.7500     8.6670 OW            1 RES     
   11518 HW1         15.4910     6.2850     8.5060 HW1           1 RES     
   11519 HW2         14.7230     7.7260     8.4760 HW2           1 RES     
   11520 OW          10.8560    35.3870    17.0020 OW            1 RES     
   11521 HW1         10.2520    34.7740    16.4940 HW1           1 RES     
   11522 HW2         11.2170    34.9110    17.8040 HW2           1 RES     
   11523 OW          12.9610    40.3810     8.9270 OW            1 RES     
   11524 HW1         12.3430    40.9270     8.3630 HW1           1 RES     
   11525 HW2         12.6020    40.3270     9.8590 HW2           1 RES     
   11526 OW           6.0710    15.0050     7.3110 OW            1 RES     
   11527 HW1          6.4930    15.2490     8.1830 HW1           1 RES     
   11528 HW2          5.7750    14.0500     7.3390 HW2           1 RES     
   11529 OW          14.5290    24.8490    13.0240 OW            1 RES     
   11530 HW1         13.9090    25.3080    12.3900 HW1           1 RES     
   11531 HW2         14.0030    24.4440    13.7720 HW2           1 RES     
   11532 OW          14.7270     8.3980    12.0010 OW            1 RES     
   11533 HW1         14.2120     9.1560    11.6030 HW1           1 RES     
   11534 HW2         14.7580     7.6380    11.3510 HW2           1 RES     
   11535 OW          29.5420    15.6580    21.3970 OW            1 RES     
   11536 HW1         29.1420    16.5720    21.3480 HW1           1 RES     
   11537 HW2         28.8660    15.0170    21.7610 HW2           1 RES     
   11538 OW          38.9750    34.5460     8.8580 OW            1 RES     
   11539 HW1         38.0160    34.3680     8.6390 HW1           1 RES     
   11540 HW2         39.2240    35.4630     8.5430 HW2           1 RES     
@<TRIPOS>BOND
       1     1739     1740 1
       2      917      918 1
       3     1248     1249 1
       4     1010     1011 1
       5     1466     1467 1
       6      188      189 1
       7     1456     1457 1
       8     2852     2849 1
       9      879      881 1
      10     2969     2970 1
      11     1062     1063 1
      12     5964     5965 1
      13    10653    10654 1
      14     2490     2491 1
      15     2496     2497 1
      16     2163     2164 1
      17     3044     3045 1
      18     3978     3979 1
      19     1196     1197 1
      20     3166     3165 1
      21    11085    11086 1
      22     5685     5686 1
      23     9519     9520 1
      24     7764     7765 1
      25     9168     9169 1
      26     5334     5335 1
      27     4227     4228 1
      28     3706     3707 1
      29     4389     4390 1
      30     7251     7252 1
      31     2605     2606 1
      32     4182     4183 1
      33     1924     1925 1
      34      608      609 1
      35      360      361 1
      36     5847     5848 1
      37     3522     3523 1
      38     4248     4249 1
      39      613      612 1
      40    10713    10714 1
      41      483      484 1
      42     7032     7033 1
      43     9111     9112 1
      44     5115     5116 1
      45     4953     4954 1
      46     6870     6871 1
      47    10704    10705 1
      48     7869     7870 1
      49     5952     5953 1
      50     8949     8950 1
      51     5790     5791 1
      52     9120     9122 1
      53     2884     2885 1
      54     4074     4076 1
      55     3348     3349 1
      56      478      479 1
      57     1253     1254 1
      58       32       33 1
      59     1234     1233 1
      60     6054     6056 1
      61     9366     9367 1
      62       12       13 1
      63     3731     3730 1
      64     3882     3883 1
      65      353      354 1
      66     2363     2366 1
      67     6552     6553 1
      68     2253     2254 1
      69     6795     6796 1
      70      987      989 1
      71    10386    10387 1
      72     8550     8551 1
      73     8631     8632 1
      74     2498     2499 1
      75    10629    10630 1
      76     5202     5204 1
      77     7473     7475 1
      78     5112     5113 1
      79     4176     4178 1
      80    11196    11198 1
      81     8361     8363 1
      82     9279     9281 1
      83    10116    10118 1
      84     7200     7202 1
      85     4338     4340 1
      86    10278    10280 1
      87    11034    11036 1
      88    10716    10718 1
      89     8400     8402 1
      90     9957     9958 1
      91     9147     9148 1
      92     1504     1505 1
      93     8412     8414 1
      94     3271     3272 1
      95     2400     2401 1
      96     3139     3140 1
      97     4125     4127 1
      98     2191     2192 1
      99      745      746 1
     100     5754     5756 1
     101       56       58 1
     102     6207     6209 1
     103    10041    10043 1
     104     9474     9476 1
     105     7719     7721 1
     106     7557     7559 1
     107     4695     4697 1
     108     8124     8126 1
     109     5478     5480 1
     110     1539     1540 1
     111     3936     3937 1
     112      797      796 1
     113     1736     1735 1
     114     1921     1920 1
     115     1847     1846 1
     116      186      187 1
     117      812      814 1
     118      695      696 1
     119     3076     3077 1
     120     1133     1134 1
     121     1022     1023 1
     122      473      474 1
     123     1460     1461 1
     124      458      459 1
     125     2532     2534 1
     126     6600     6602 1
     127     8031     8033 1
     128     3866     3864 1
     129     4083     4084 1
     130    10239    10240 1
     131     6243     6244 1
     132     8160     8161 1
     133    10158    10159 1
     134     9996     9997 1
     135     6405     6406 1
     136     4254     4255 1
     137     6162     6163 1
     138     8241     8242 1
     139     3411     3412 1
     140     9411     9413 1
     141     2407     2408 1
     142     9414     9416 1
     143     1078     1079 1
     144     7206     7207 1
     145    11040    11041 1
     146    10689    10690 1
     147     8772     8773 1
     148    10284    10285 1
     149    10122    10123 1
     150    11202    11203 1
     151     8934     8935 1
     152    10851    10852 1
     153     7935     7936 1
     154      641      642 1
     155     1505     1506 1
     156    11538    11540 1
     157    11409    11410 1
     158     9924     9925 1
     159      623      622 1
     160     6105     6107 1
     161     2230     2231 1
     162     2119     2120 1
     163     2011     2012 1
     164     1650     1649 1
     165     1539     1538 1
     166     4356     4358 1
     167     5058     5060 1
     168     4896     4898 1
     169     4518     4520 1
     170     1014     1015 1
     171      898      877 1
     172     2828     2807 1
     173    10458    10460 1
     174     3939     3941 1
     175     3721     3722 1
     176     3758     3759 1
     177     2032     2033 1
     178     2143     2144 1
     179     1388     1389 1
     180     1116     1118 1
     181     2527     2528 1
     182     2201     2204 1
     183     2801     2802 1
     184      785      786 1
     185    11493    11494 1
     186     5661     5662 1
     187     5580     5581 1
     188     7497     7498 1
     189     4635     4636 1
     190    11412    11413 1
     191     4473     4474 1
     192     5742     5743 1
     193     7578     7579 1
     194     4554     4555 1
     195     3426     3427 1
     196    10290    10291 1
     197     5295     5296 1
     198     4512     4513 1
     199    11370    11371 1
     200     8211     8212 1
     201     6294     6295 1
     202     9129     9130 1
     203    10452    10453 1
     204     9639     9640 1
     205     8793     8795 1
     206     4797     4799 1
     207     4698     4699 1
     208     5805     5806 1
     209     8451     8452 1
     210    10548    10550 1
     211     7884     7885 1
     212     6957     6959 1
     213     6372     6373 1
     214     6633     6635 1
     215     2744     2745 1
     216     2999     3000 1
     217     3164     3165 1
     218     2141     2142 1
     219     2573     2574 1
     220     9486     9487 1
     221     5490     5491 1
     222     7407     7408 1
     223     9324     9325 1
     224    10701    10702 1
     225     4950     4951 1
     226     6867     6868 1
     227    11241    11242 1
     228     8946     8947 1
     229     9108     9109 1
     230     2302     2303 1
     231      974      976 1
     232    11238    11240 1
     233     6111     6113 1
     234     8406     8408 1
     235      574      575 1
     236      466      467 1
     237     1285     1286 1
     238     7500     7501 1
     239     4476     4477 1
     240     2207     2208 1
     241     5583     5584 1
     242     9687     9688 1
     243     4638     4639 1
     244     7932     7933 1
     245    11496    11497 1
     246     5745     5746 1
     247     2161     2162 1
     248     2418     2420 1
     249     7968     7970 1
     250      545      546 1
     251     1382     1383 1
     252     3876     3878 1
     253     4404     4406 1
     254     3391     3390 1
     255     1774     1776 1
     256     5226     5227 1
     257     3564     3565 1
     258     3527     3528 1
     259     6249     6251 1
     260     8166     8168 1
     261     8247     8249 1
     262    10164    10166 1
     263    10245    10247 1
     264     6168     6170 1
     265     6411     6413 1
     266     2830     2831 1
     267    10002    10004 1
     268     1855     1856 1
     269     2100     2102 1
     270      913      914 1
     271     1615     1616 1
     272     1541     1542 1
     273     1803     1804 1
     274     5034     5036 1
     275     3214     3213 1
     276     3816     3817 1
     277     3542     3543 1
     278      940      941 1
     279    10869    10870 1
     280     5901     5902 1
     281      246      247 1
     282     4002     4003 1
     283     2628     2627 1
     284     3281     3282 1
     285    10581    10583 1
     286     2992     2994 1
     287     2356     2355 1
     288     8331     8333 1
     289     8967     8969 1
     290    11046    11048 1
     291    10128    10130 1
     292     8049     8051 1
     293      290      291 1
     294     1046     1047 1
     295     9291     9293 1
     296     6132     6134 1
     297     5133     5135 1
     298     1031     1032 1
     299     2272     2273 1
     300     2494     2495 1
     301     1521     1522 1
     302     7554     7556 1
     303     3885     3887 1
     304     6555     6557 1
     305    10389    10391 1
     306     9309     9311 1
     307    10146    10148 1
     308     7716     7718 1
     309     6150     6152 1
     310     1407     1408 1
     311    11064    11066 1
     312     5856     5858 1
     313     1827     1828 1
     314     6789     6790 1
     315      716      717 1
     316      252      253 1
     317     2283     2282 1
     318     2484     2485 1
     319       92       93 1
     320     3978     3980 1
     321       29       30 1
     322      227      228 1
     323      931      932 1
     324     3391     3392 1
     325     2086     2087 1
     326     5058     5059 1
     327     3194     3195 1
     328     7311     7312 1
     329    11223    11225 1
     330     3539     3540 1
     331     1148     1149 1
     332     2997     2998 1
     333     3562     3563 1
     334     3673     3674 1
     335    11331    11333 1
     336     5499     5501 1
     337    11250    11252 1
     338     9333     9335 1
     339     9495     9497 1
     340     5418     5420 1
     341     2388     2389 1
     342     2709     2710 1
     343    11169    11171 1
     344     7416     7418 1
     345     3927     3929 1
     346     2190     2191 1
     347     3369     3370 1
     348     3401     3400 1
     349     3416     3417 1
     350      200      201 1
     351     7539     7541 1
     352     7890     7892 1
     353     4704     4706 1
     354     9645     9647 1
     355     2982     2983 1
     356     4677     4679 1
     357     5460     5462 1
     358     7701     7703 1
     359     2375     2376 1
     360     5811     5813 1
     361     2550     2551 1
     362     2073     2074 1
     363    10905    10907 1
     364    10824    10826 1
     365     8907     8909 1
     366     4209     4211 1
     367     7233     7235 1
     368     9069     9071 1
     369     8826     8828 1
     370     6828     6830 1
     371     4992     4994 1
     372     7071     7073 1
     373     1300     1301 1
     374     4782     4784 1
     375     4761     4762 1
     376     4305     4307 1
     377    10659    10660 1
     378       85       84 1
     379      588      589 1
     380    10260    10261 1
     381     2805     2806 1
     382     2373     2374 1
     383     3561     3562 1
     384     5070     5072 1
     385    10281    10283 1
     386     1563     1564 1
     387     1245     1246 1
     388      176      175 1
     389      806      807 1
     390     1118     1119 1
     391     2316     2318 1
     392     6438     6439 1
     393     6876     6877 1
     394     2234     2235 1
     395     2050     2051 1
     396     1834     1835 1
     397     9999    10001 1
     398     9465     9466 1
     399     1517     1518 1
     400     2610     2611 1
     401     1213     1214 1
     402    10881    10883 1
     403     6804     6806 1
     404     7209     7211 1
     405     4185     4187 1
     406     8802     8804 1
     407     6615     6617 1
     408     6939     6941 1
     409     4860     4862 1
     410     8775     8777 1
     411     8883     8885 1
     412     8709     8711 1
     413     9138     9140 1
     414     3849     3850 1
     415     3513     3514 1
     416     2103     2104 1
     417     3440     3441 1
     418     2444     2445 1
     419    11175    11176 1
     420    11256    11257 1
     421     5424     5425 1
     422     1143     1144 1
     423     3854     3855 1
     424     9501     9502 1
     425     7422     7423 1
     426     9339     9340 1
     427      129      130 1
     428    11337    11338 1
     429     6441     6442 1
     430     1864     1865 1
     431     1716     1717 1
     432     5715     5716 1
     433     5091     5092 1
     434     3782     3783 1
     435     9486     9488 1
     436     6867     6869 1
     437     5490     5492 1
     438     9324     9326 1
     439    10701    10703 1
     440     9108     9110 1
     441     5112     5114 1
     442     4950     4952 1
     443    11241    11243 1
     444     8946     8948 1
     445     2589     2590 1
     446     4035     4037 1
     447      254      252 1
     448     3157     3158 1
     449      370      371 1
     450     2914     2915 1
     451     1462     1463 1
     452    10953    10955 1
     453     2153     2154 1
     454     8649     8650 1
     455     1515     1514 1
     456    10371    10372 1
     457     5160     5161 1
     458     6915     6916 1
     459     1510     1511 1
     460     6537     6538 1
     461     8616     8617 1
     462    10911    10912 1
     463     7077     7078 1
     464    11313    11314 1
     465     5400     5401 1
     466     9315     9316 1
     467     9477     9478 1
     468     9396     9397 1
     469     7398     7399 1
     470    11151    11152 1
     471     8991     8992 1
     472     5481     5482 1
     473    11232    11233 1
     474     1401     1402 1
     475     4047     4049 1
     476    11070    11072 1
     477     3615     3616 1
     478     2336     2337 1
     479     2873     2874 1
     480     3464     3465 1
     481     3671     3672 1
     482     2863     2865 1
     483     9696     9698 1
     484     5694     5695 1
     485     4860     4861 1
     486     1566     1567 1
     487     2224     2225 1
     488     3141     3142 1
     489      686      684 1
     490     9912     9914 1
     491     8262     8264 1
     492     6843     6845 1
     493     9219     9221 1
     494     6681     6683 1
     495     6978     6980 1
     496    11055    11057 1
     497     8517     8519 1
     498    10596    10598 1
     499     7140     7142 1
     500     9300     9302 1
     501     8976     8978 1
     502     3046     3047 1
     503      185      186 1
     504      194      195 1
     505     1164     1163 1
     506      607      608 1
     507     2260     2261 1
     508      584      585 1
     509      356      357 1
     510      782      783 1
     511       28       29 1
     512     3243     3244 1
     513     3254     3255 1
     514      536      537 1
     515      257      256 1
     516     7836     7837 1
     517    10077    10078 1
     518     9834     9835 1
     519     6000     6001 1
     520     7998     7999 1
     521     8079     8080 1
     522     5391     5392 1
     523       59       60 1
     524     9951     9952 1
     525     2465     2466 1
     526     2240     2241 1
     527     6504     6505 1
     528     1814     1815 1
     529     1037     1038 1
     530     1570     1571 1
     531     2096     2095 1
     532    10896    10897 1
     533     8817     8818 1
     534     8439     8440 1
     535     4983     4984 1
     536     4200     4201 1
     537     7224     7225 1
     538    10437    10438 1
     539     6603     6604 1
     540     6522     6523 1
     541    10356    10357 1
     542     6159     6160 1
     543     3549     3550 1
     544     3817     3818 1
     545    10965    10967 1
     546     1488     1489 1
     547     2599     2600 1
     548     2173     2174 1
     549     2488     2489 1
     550     2596     2597 1
     551     2932     2933 1
     552     2821     2822 1
     553     1944     1945 1
     554     4182     4184 1
     555     1722     1723 1
     556      824      825 1
     557     1526     1525 1
     558     2542     2543 1
     559     3179     3178 1
     560     8652     8653 1
     561    10623    10624 1
     562     6546     6547 1
     563    10380    10381 1
     564     8625     8626 1
     565     5061     5062 1
     566     4899     4900 1
     567     6735     6736 1
     568      726      727 1
     569    10731    10732 1
     570    10713    10715 1
     571     4002     4004 1
     572     6279     6281 1
     573      895      894 1
     574     1455     1454 1
     575     4869     4870 1
     576     1088     1089 1
     577     1331     1332 1
     578      240      239 1
     579     3229     3230 1
     580     3386     3387 1
     581     2034     2035 1
     582     2061     2062 1
     583     3536     3537 1
     584     5184     5185 1
     585     1363     1362 1
     586    10830    10831 1
     587    10386    10388 1
     588     6795     6797 1
     589     8550     8552 1
     590     8631     8633 1
     591     3675     3676 1
     592     6552     6554 1
     593    10629    10631 1
     594     2300     2301 1
     595     2724     2725 1
     596     2406     2407 1
     597     2835     2836 1
     598     9957     9959 1
     599     9147     9149 1
     600     2772     2773 1
     601       74       73 1
     602    10476    10477 1
     603     4242     4244 1
     604     2452     2454 1
     605     9009     9010 1
     606     1359     1360 1
     607     2701     2703 1
     608     1779     1780 1
     609     3446     3447 1
     610     3449     3450 1
     611     3526     3527 1
     612     6315     6317 1
     613     1670     1671 1
     614     1596     1597 1
     615     5442     5444 1
     616     4902     4904 1
     617     5307     5309 1
     618     5064     5066 1
     619     7818     7820 1
     620     7386     7388 1
     621     7467     7469 1
     622     4524     4526 1
     623     2637     2638 1
     624     2370     2373 1
     625     4152     4153 1
     626       15       16 1
     627     8088     8089 1
     628     1214     1215 1
     629     7023     7025 1
     630     8043     8044 1
     631      110      112 1
     632      869      868 1
     633     7293     7295 1
     634     9159     9161 1
     635     1001     1002 1
     636     1112     1113 1
     637     8073     8074 1
     638     3548     3549 1
     639     3591     3592 1
     640     4821     4822 1
     641     7425     7427 1
     642     4563     4565 1
     643     7668     7670 1
     644     5346     5348 1
     645     4644     4646 1
     646     6075     6077 1
     647     9747     9749 1
     648     6345     6347 1
     649     9909     9911 1
     650     4995     4997 1
     651     7359     7361 1
     652     3655     3656 1
     653     2117     2118 1
     654     1860     1859 1
     655     1912     1913 1
     656      731      732 1
     657      842      843 1
     658     3292     3293 1
     659     8556     8557 1
     660     3553     3554 1
     661    10392    10393 1
     662     6558     6559 1
     663     8637     8638 1
     664     1503     1502 1
     665    10635    10636 1
     666     1980     1981 1
     667      961      962 1
     668     2475     2476 1
     669    11388    11390 1
     670     4530     4532 1
     671     4368     4370 1
     672     5448     5450 1
     673     5286     5288 1
     674     6285     6287 1
     675     8391     8393 1
     676     8229     8231 1
     677     1204     1205 1
     678    10470    10472 1
     679     2258     2256 1
     680     2755     2757 1
     681       42       43 1
     682     7782     7783 1
     683     1017     1018 1
     684      306      308 1
     685     1028     1030 1
     686     3891     3893 1
     687     3110     3111 1
     688     3712     3713 1
     689     1954     1955 1
     690     6471     6472 1
     691      235      234 1
     692     2962     2963 1
     693     3096     3097 1
     694     3642     3643 1
     695     3129     3130 1
     696    10569    10570 1
     697     6816     6817 1
     698     8001     8003 1
     699     6606     6607 1
     700     7524     7525 1
     701     9441     9442 1
     702    10440    10441 1
     703     4500     4501 1
     704     9603     9604 1
     705     5427     5428 1
     706     7362     7363 1
     707     6444     6445 1
     708     5607     5608 1
     709     6591     6592 1
     710     6240     6241 1
     711     8427     8428 1
     712       77       78 1
     713    10236    10237 1
     714     1207     1208 1
     715     8238     8239 1
     716    10344    10345 1
     717     6429     6430 1
     718     4473     4475 1
     719     5580     5582 1
     720    11493    11495 1
     721     5661     5663 1
     722     7578     7580 1
     723     4554     4556 1
     724     7497     7499 1
     725     4635     4637 1
     726    11412    11414 1
     727     5742     5744 1
     728     3187     3188 1
     729     6393     6395 1
     730     3541     3542 1
     731     5625     5626 1
     732     5976     5977 1
     733    10890    10891 1
     734    11538    11539 1
     735     9810     9811 1
     736     6705     6706 1
     737     4788     4789 1
     738     9972     9973 1
     739     8784     8785 1
     740     7218     7219 1
     741     3750     3751 1
     742      426      427 1
     743      315      316 1
     744     1082     1084 1
     745     3419     3420 1
     746     5271     5273 1
     747     5433     5435 1
     748     8187     8189 1
     749     6270     6272 1
     750    10860    10862 1
     751     4044     4045 1
     752       65       66 1
     753     9942     9944 1
     754     8025     8027 1
     755     1976     1977 1
     756     4410     4411 1
     757      630      631 1
     758     7035     7036 1
     759     2743     2744 1
     760     1164     1165 1
     761     4080     4081 1
     762     4929     4930 1
     763     1680     1681 1
     764     1489     1490 1
     765     2983     2984 1
     766     3138     3139 1
     767     2691     2690 1
     768     4491     4492 1
     769     1299     1300 1
     770     1024     1025 1
     771      586      587 1
     772     9354     9356 1
     773     7113     7115 1
     774     9192     9194 1
     775     6195     6197 1
     776     6519     6521 1
     777     8112     8114 1
     778    10029    10031 1
     779     4251     4253 1
     780    11109    11111 1
     781     7275     7277 1
     782      680      681 1
     783     9030     9031 1
     784     1763     1764 1
     785     1806     1807 1
     786      174      175 1
     787       99      100 1
     788     7374     7375 1
     789      439      440 1
     790      487      490 1
     791     4365     4366 1
     792     6306     6307 1
     793     4482     4484 1
     794     5496     5498 1
     795     3303     3304 1
     796     3091     3092 1
     797     9087     9088 1
     798     2779     2778 1
     799     1193     1194 1
     800     8844     8846 1
     801     6090     6091 1
     802    10101    10103 1
     803     7008     7009 1
     804     7941     7943 1
     805     9858     9860 1
     806     8346     8348 1
     807     7683     7684 1
     808     6348     6350 1
     809    10182    10184 1
     810     7575     7576 1
     811     8265     8267 1
     812     3503     3504 1
     813     3430     3431 1
     814     2497     2498 1
     815     1524     1525 1
     816    10122    10124 1
     817     5838     5840 1
     818      598      595 1
     819     3231     3232 1
     820     9498     9499 1
     821     9678     9679 1
     822     8760     8761 1
     823     4926     4927 1
     824    10677    10678 1
     825     8922     8923 1
     826     7923     7924 1
     827    10839    10840 1
     828     5844     5845 1
     829    11037    11039 1
     830     2592     2593 1
     831     1782     1783 1
     832     1708     1709 1
     833     3571     3573 1
     834     4605     4607 1
     835     2581     2582 1
     836     2689     2690 1
     837     5712     5714 1
     838     9204     9205 1
     839     3472     3471 1
     840     4896     4897 1
     841     9567     9568 1
     842      887      888 1
     843     9552     9553 1
     844    10632    10633 1
     845     8982     8983 1
     846    10791    10792 1
     847     9306     9307 1
     848     4959     4960 1
     849    11061    11062 1
     850     7146     7147 1
     851     8712     8713 1
     852     6984     6985 1
     853     5229     5230 1
     854     9225     9226 1
     855     2798     2799 1
     856     2489     2490 1
     857     2276     2277 1
     858     7311     7313 1
     859      721      722 1
     860     1334     1335 1
     861     2706     2707 1
     862     2166     2167 1
     863    11148    11150 1
     864     9312     9314 1
     865     7392     7393 1
     866     1280     1281 1
     867     3045     3046 1
     868      559      560 1
     869     1449     1450 1
     870      534      535 1
     871      753      754 1
     872    11049    11051 1
     873     9294     9296 1
     874     6972     6974 1
     875     8511     8513 1
     876     9213     9215 1
     877     6837     6839 1
     878     8970     8972 1
     879     6675     6677 1
     880    10509    10511 1
     881     7134     7136 1
     882     6858     6860 1
     883     5964     5966 1
     884    10149    10151 1
     885     5802     5804 1
     886     6153     6155 1
     887     8070     8072 1
     888     7881     7883 1
     889     6126     6128 1
     890     9816     9817 1
     891    11517    11519 1
     892     5766     5768 1
     893     4308     4310 1
     894     9087     9089 1
     895     5928     5930 1
     896    11355    11357 1
     897     7332     7334 1
     898     9249     9251 1
     899     7170     7172 1
     900     3761     3763 1
     901     2855     2856 1
     902    10659    10661 1
     903    10260    10262 1
     904     7161     7163 1
     905     1103     1104 1
     906    11484    11486 1
     907     8193     8195 1
     908     6438     6440 1
     909     3443     3444 1
     910     2571     2572 1
     911     2145     2146 1
     912     5541     5543 1
     913     2882     2883 1
     914     3702     3703 1
     915     3850     3851 1
     916     3879     3880 1
     917     4686     4687 1
     918     1104     1105 1
     919     2618     2619 1
     920    11502    11504 1
     921     8046     8048 1
     922    10125    10127 1
     923    11340    11342 1
     924     5751     5753 1
     925     6129     6131 1
     926     5913     5915 1
     927     2066     2067 1
     928     3936     3938 1
     929      643      644 1
     930     5532     5533 1
     931     6531     6532 1
     932    10365    10366 1
     933     3697     3698 1
     934     3808     3809 1
     935     7611     7612 1
     936    11445    11446 1
     937      421      422 1
     938     3771     3772 1
     939     2267     2268 1
     940      383      384 1
     941     4314     4316 1
     942     9093     9095 1
     943     9255     9257 1
     944     7338     7340 1
     945     7176     7178 1
     946     1579     1580 1
     947     2526     2528 1
     948     6705     6707 1
     949     4416     4417 1
     950     5943     5945 1
     951     1984     1983 1
     952     3362     3363 1
     953      159      160 1
     954     5625     5627 1
     955     5976     5978 1
     956     7218     7220 1
     957     4194     4196 1
     958    10539    10541 1
     959     8784     8786 1
     960     9810     9812 1
     961     9972     9974 1
     962    10890    10892 1
     963     9621     9623 1
     964     3044     3023 1
     965     4083     4085 1
     966     1441     1442 1
     967     2887     2888 1
     968     2998     2999 1
     969     2464     2465 1
     970     3163     3164 1
     971     5037     5039 1
     972     4443     4445 1
     973      872      873 1
     974     3648     3649 1
     975     4959     4961 1
     976     3288     3289 1
     977     2782     2783 1
     978     7146     7148 1
     979     3999     4000 1
     980    10893    10894 1
     981     1041     1043 1
     982     9723     9724 1
     983    10641    10642 1
     984     5403     5404 1
     985     4137     4138 1
     986     5052     5053 1
     987     7806     7807 1
     988     5889     5890 1
     989    11316    11317 1
     990     5859     5860 1
     991     7776     7777 1
     992     9693     9694 1
     993    11448    11449 1
     994     7965     7966 1
     995     9882     9883 1
     996      237      238 1
     997      222      223 1
     998     8991     8993 1
     999     3320     3319 1
    1000       15       17 1
    1001     3573     3574 1
    1002     7191     7192 1
    1003     4167     4168 1
    1004    11187    11188 1
    1005    11025    11026 1
    1006     9270     9271 1
    1007     4329     4330 1
    1008     7920     7921 1
    1009     9675     9676 1
    1010     5841     5842 1
    1011      429      430 1
    1012      318      319 1
    1013      741      742 1
    1014      541      544 1
    1015     4380     4382 1
    1016     4218     4220 1
    1017     9078     9080 1
    1018     7242     7244 1
    1019    11076    11078 1
    1020     7323     7325 1
    1021     3181     3182 1
    1022     1353     1354 1
    1023     2079     2080 1
    1024     9240     9242 1
    1025     3392     3393 1
    1026     2081     2082 1
    1027      548      551 1
    1028    11310    11311 1
    1029     3667     3668 1
    1030     1379     1380 1
    1031      212      211 1
    1032     9945     9946 1
    1033     1077     1078 1
    1034      942      943 1
    1035      405      406 1
    1036     1641     1643 1
    1037     2990     2969 1
    1038     6762     6763 1
    1039     6924     6926 1
    1040    11001    11003 1
    1041     7086     7088 1
    1042     7005     7007 1
    1043    10920    10922 1
    1044     5169     5171 1
    1045     5250     5252 1
    1046     5088     5090 1
    1047      368      369 1
    1048      479      480 1
    1049      566      567 1
    1050     2168     2169 1
    1051     2390     2391 1
    1052     4377     4379 1
    1053     3217     3218 1
    1054     1528     1529 1
    1055     3211     3212 1
    1056     1933     1934 1
    1057     8862     8863 1
    1058    10779    10780 1
    1059     9861     9862 1
    1060     6027     6028 1
    1061     7944     7945 1
    1062     8700     8701 1
    1063    10941    10942 1
    1064     2286     2287 1
    1065     4122     4123 1
    1066     3906     3907 1
    1067     8952     8954 1
    1068     3219     3220 1
    1069     9939     9941 1
    1070     6504     6506 1
    1071     2796     2798 1
    1072      929      930 1
    1073      821      822 1
    1074     1411     1412 1
    1075     6375     6377 1
    1076    11289    11291 1
    1077     8454     8456 1
    1078     4431     4433 1
    1079     5376     5378 1
    1080     4269     4271 1
    1081     8292     8294 1
    1082    10209    10211 1
    1083     9015     9016 1
    1084     4398     4399 1
    1085      529      530 1
    1086     3444     3445 1
    1087     1264     1265 1
    1088     2818     2819 1
    1089     1878     1879 1
    1090     1730     1731 1
    1091      392      393 1
    1092      284      285 1
    1093     7104     7105 1
    1094     3343     3342 1
    1095     3131     3130 1
    1096     9516     9517 1
    1097     4737     4738 1
    1098     6222     6223 1
    1099     5682     5683 1
    1100     7761     7762 1
    1101     6060     6061 1
    1102    10056    10057 1
    1103     8139     8140 1
    1104     2992     2993 1
    1105      551      552 1
    1106     1465     1466 1
    1107     8547     8549 1
    1108     2797     2798 1
    1109     7050     7051 1
    1110    10884    10885 1
    1111     4023     4024 1
    1112     3203     3204 1
    1113     1793     1795 1
    1114      393      395 1
    1115     2285     2286 1
    1116     5391     5393 1
    1117     1998     1997 1
    1118     7152     7153 1
    1119     1212     1213 1
    1120    11154    11156 1
    1121     1101     1102 1
    1122     3454     3455 1
    1123     2523     2524 1
    1124     2412     2413 1
    1125     2730     2731 1
    1126     2187     2188 1
    1127     2193     2194 1
    1128     2841     2842 1
    1129     2301     2302 1
    1130     2304     2305 1
    1131     1777     1778 1
    1132    10518    10519 1
    1133     1378     1379 1
    1134     2331     2332 1
    1135      113      114 1
    1136     2223     2224 1
    1137     5181     5183 1
    1138     6666     6668 1
    1139    10338    10340 1
    1140     8340     8342 1
    1141     8502     8504 1
    1142    11013    11015 1
    1143     7098     7100 1
    1144     6936     6938 1
    1145     8745     8747 1
    1146     7017     7019 1
    1147     1201     1202 1
    1148     9438     9439 1
    1149     4497     4498 1
    1150     9615     9617 1
    1151      382      383 1
    1152     4758     4760 1
    1153     3912     3913 1
    1154     9666     9667 1
    1155     3143     3142 1
    1156     3792     3793 1
    1157     3644     3645 1
    1158    10749    10751 1
    1159     6339     6341 1
    1160     8043     8045 1
    1161     3336     3337 1
    1162      578      579 1
    1163      377      378 1
    1164      651      652 1
    1165     9858     9859 1
    1166    10263    10264 1
    1167    10917    10919 1
    1168     3233     3234 1
    1169      155      156 1
    1170     1360     1361 1
    1171     2258     2259 1
    1172     8073     8075 1
    1173      575      576 1
    1174     3122     3123 1
    1175    11289    11290 1
    1176     6198     6199 1
    1177    10383    10384 1
    1178     8304     8305 1
    1179     7278     7279 1
    1180     1177     1178 1
    1181    10314    10316 1
    1182     8478     8480 1
    1183     6642     6644 1
    1184     5238     5240 1
    1185     7074     7076 1
    1186    10989    10991 1
    1187     6912     6914 1
    1188     8721     8723 1
    1189     6480     6482 1
    1190     6993     6995 1
    1191     5301     5303 1
    1192     7380     7382 1
    1193     3363     3364 1
    1194     5886     5887 1
    1195     9009     9011 1
    1196     9051     9053 1
    1197    10203    10204 1
    1198     4587     4589 1
    1199     5253     5254 1
    1200     1130     1129 1
    1201     7920     7922 1
    1202     4329     4331 1
    1203     9270     9272 1
    1204     9675     9677 1
    1205     7191     7193 1
    1206     4167     4169 1
    1207    11187    11189 1
    1208    11025    11027 1
    1209    11280    11281 1
    1210     5841     5843 1
    1211     2644     2645 1
    1212     3476     3478 1
    1213     3742     3744 1
    1214     1951     1952 1
    1215     2575     2576 1
    1216     3685     3687 1
    1217     2698     2699 1
    1218     3093     3094 1
    1219     9057     9058 1
    1220    10569    10571 1
    1221     5310     5311 1
    1222     5445     5446 1
    1223    11115    11116 1
    1224    11304    11305 1
    1225     5283     5284 1
    1226     5553     5554 1
    1227     4284     4285 1
    1228     7389     7390 1
    1229     5202     5203 1
    1230    11385    11386 1
    1231     6264     6265 1
    1232     3425     3426 1
    1233     5727     5728 1
    1234     9021     9022 1
    1235     7266     7267 1
    1236     5565     5566 1
    1237     5025     5026 1
    1238     4458     4459 1
    1239     7482     7483 1
    1240     5187     5188 1
    1241    11478    11479 1
    1242    10440    10442 1
    1243     9441     9443 1
    1244     6606     6608 1
    1245     7524     7526 1
    1246     4500     4502 1
    1247     1889     1890 1
    1248     9603     9605 1
    1249     7362     7364 1
    1250     6444     6446 1
    1251     5607     5609 1
    1252     9294     9295 1
    1253    11307    11308 1
    1254     2138     2139 1
    1255     2468     2469 1
    1256     3097     3098 1
    1257     5760     5761 1
    1258     5679     5680 1
    1259     5922     5923 1
    1260     9513     9514 1
    1261    11349    11350 1
    1262     4734     4735 1
    1263    11511    11512 1
    1264     7758     7759 1
    1265     9054     9055 1
    1266      781      782 1
    1267      670      671 1
    1268    11274    11276 1
    1269     5787     5789 1
    1270     4515     4517 1
    1271     7377     7379 1
    1272     4353     4355 1
    1273    11373    11375 1
    1274     9132     9134 1
    1275     5298     5300 1
    1276     4272     4274 1
    1277     5379     5381 1
    1278     4434     4436 1
    1279    11211    11213 1
    1280     1965     1966 1
    1281     2107     2109 1
    1282     3520     3521 1
    1283       78       79 1
    1284     7068     7069 1
    1285     6267     6268 1
    1286     2856     2857 1
    1287     1492     1493 1
    1288     2122     2123 1
    1289      148      147 1
    1290     1902     1903 1
    1291      808      809 1
    1292     2322     2323 1
    1293     8673     8675 1
    1294    10968    10970 1
    1295     2089     2090 1
    1296     1612     1613 1
    1297     1840     1841 1
    1298     7002     7004 1
    1299     9030     9032 1
    1300      494      497 1
    1301      965      966 1
    1302      710      713 1
    1303     2018     2019 1
    1304     1094     1095 1
    1305      846      847 1
    1306    11220    11221 1
    1307     3196     3197 1
    1308      324      323 1
    1309     3312     3313 1
    1310     3705     3706 1
    1311    10560    10562 1
    1312      497      498 1
    1313     1685     1686 1
    1314     3724     3725 1
    1315     5241     5243 1
    1316     6996     6998 1
    1317    10992    10994 1
    1318     6780     6782 1
    1319     8535     8537 1
    1320     5079     5081 1
    1321    10614    10616 1
    1322     1675     1676 1
    1323     1712     1713 1
    1324     1786     1787 1
    1325     3845     3846 1
    1326     3660     3661 1
    1327     3623     3624 1
    1328     3734     3735 1
    1329     1678     1679 1
    1330     1823     1824 1
    1331     1749     1750 1
    1332     3212     3213 1
    1333     1515     1516 1
    1334     2269     2271 1
    1335     9525     9527 1
    1336     5691     5693 1
    1337     7770     7772 1
    1338    11010    11012 1
    1339     8562     8563 1
    1340     7014     7016 1
    1341     5097     5099 1
    1342     5259     5261 1
    1343     4746     4748 1
    1344     3106     3107 1
    1345     3831     3832 1
    1346     3646     3647 1
    1347     3720     3721 1
    1348     4869     4871 1
    1349     4899     4901 1
    1350      823      822 1
    1351     2551     2552 1
    1352      466      445 1
    1353     7491     7492 1
    1354     5736     5737 1
    1355     5979     5980 1
    1356     9975     9976 1
    1357     4467     4468 1
    1358     5574     5575 1
    1359     5655     5656 1
    1360     9813     9814 1
    1361     7572     7573 1
    1362     4548     4549 1
    1363     4122     4124 1
    1364     3906     3908 1
    1365     8385     8387 1
    1366     3942     3944 1
    1367     9966     9967 1
    1368     5958     5959 1
    1369     3232     3233 1
    1370     3387     3388 1
    1371     4365     4367 1
    1372     9552     9554 1
    1373    10632    10634 1
    1374     2586     2587 1
    1375     2694     2695 1
    1376     5094     5095 1
    1377     3326     3327 1
    1378     3756     3757 1
    1379     7044     7045 1
    1380     3781     3782 1
    1381     5127     5128 1
    1382     8982     8984 1
    1383    10791    10793 1
    1384     9306     9308 1
    1385    11061    11063 1
    1386     8712     8714 1
    1387     6984     6986 1
    1388     5229     5231 1
    1389     7038     7040 1
    1390     9225     9227 1
    1391     6876     6878 1
    1392     3193     3194 1
    1393     3062     3063 1
    1394     2297     2298 1
    1395     2726     2727 1
    1396     2847     2848 1
    1397     7392     7394 1
    1398     8202     8204 1
    1399      112      109 1
    1400     9021     9023 1
    1401     1725     1724 1
    1402     3204     3205 1
    1403     7200     7201 1
    1404    10278    10279 1
    1405     6999     7001 1
    1406     6918     6920 1
    1407     5163     5165 1
    1408     2433     2434 1
    1409     5244     5246 1
    1410    10995    10997 1
    1411     3149     3150 1
    1412     5082     5084 1
    1413    10914    10916 1
    1414     7080     7082 1
    1415     2232     2233 1
    1416     9096     9098 1
    1417     4398     4400 1
    1418     9177     9179 1
    1419     5343     5345 1
    1420     4236     4238 1
    1421     4317     4319 1
    1422    11094    11096 1
    1423     7260     7262 1
    1424     9258     9260 1
    1425     9015     9017 1
    1426     3207     3208 1
    1427     4158     4159 1
    1428     7872     7874 1
    1429     6333     6335 1
    1430     6576     6578 1
    1431    10410    10412 1
    1432     6036     6038 1
    1433     7953     7955 1
    1434     3894     3895 1
    1435     9870     9872 1
    1436     8574     8576 1
    1437     6117     6119 1
    1438     6774     6775 1
    1439     1429     1430 1
    1440     1342     1343 1
    1441     6042     6044 1
    1442     2938     2939 1
    1443     1998     1999 1
    1444     1741     1742 1
    1445     3409     3410 1
    1446     2687     2690 1
    1447     2605     2604 1
    1448     2046     2049 1
    1449      885      884 1
    1450     2361     2362 1
    1451     2562     2563 1
    1452     5724     5725 1
    1453    11475    11476 1
    1454     1142     1143 1
    1455     3853     3854 1
    1456     3432     3433 1
    1457      467      468 1
    1458      899      900 1
    1459     1585     1586 1
    1460     1048     1049 1
    1461     3987     3988 1
    1462     3555     3556 1
    1463     7917     7918 1
    1464    10671    10672 1
    1465     4920     4921 1
    1466     8916     8917 1
    1467     8754     8755 1
    1468    10833    10834 1
    1469     9654     9655 1
    1470     9672     9673 1
    1471     5838     5839 1
    1472     2754     2755 1
    1473     2762     2763 1
    1474     2195     2196 1
    1475     6426     6428 1
    1476     9423     9425 1
    1477     9585     9587 1
    1478    10422    10424 1
    1479     7506     7508 1
    1480     7521     7523 1
    1481     6588     6590 1
    1482     7344     7346 1
    1483     3167     3168 1
    1484    11166    11168 1
    1485     8217     8219 1
    1486     9729     9731 1
    1487    10485    10487 1
    1488     1663     1664 1
    1489     4152     4154 1
    1490      705      706 1
    1491     3052     3053 1
    1492     2941     2942 1
    1493     1688     1687 1
    1494      637      638 1
    1495     9231     9232 1
    1496    10797    10798 1
    1497     8880     8881 1
    1498     1149     1150 1
    1499    11148    11149 1
    1500     9312     9313 1
    1501     6990     6991 1
    1502    10959    10960 1
    1503    11067    11068 1
    1504    10986    10987 1
    1505     1333     1334 1
    1506    10524    10525 1
    1507     9933     9934 1
    1508     1673     1674 1
    1509     3290     3291 1
    1510     5760     5762 1
    1511     5679     5681 1
    1512     5922     5924 1
    1513     9513     9515 1
    1514    11349    11351 1
    1515     4734     4736 1
    1516     7758     7760 1
    1517    11511    11513 1
    1518     2913     2914 1
    1519     5538     5540 1
    1520     2671     2672 1
    1521     3372     3373 1
    1522     1471     1472 1
    1523     2482     2483 1
    1524     1244     1245 1
    1525     3007     3008 1
    1526     2896     2897 1
    1527    11451    11452 1
    1528       36       37 1
    1529     3189     3190 1
    1530     7728     7729 1
    1531     3197     3198 1
    1532     7059     7061 1
    1533     4590     4591 1
    1534     5697     5698 1
    1535     4728     4729 1
    1536     5754     5755 1
    1537     7752     7753 1
    1538     5916     5917 1
    1539     3108     3109 1
    1540    11343    11344 1
    1541     9507     9508 1
    1542     5673     5674 1
    1543     6669     6670 1
    1544    10503    10504 1
    1545     1549     1550 1
    1546     1027     1030 1
    1547     8964     8965 1
    1548     5211     5212 1
    1549     9207     9208 1
    1550     6831     6832 1
    1551     7128     7129 1
    1552    10584    10585 1
    1553     7401     7403 1
    1554     2735     2736 1
    1555     7062     7064 1
    1556     3145     3146 1
    1557      204      203 1
    1558     6171     6172 1
    1559     6003     6004 1
    1560     9837     9838 1
    1561     5463     5464 1
    1562     8001     8002 1
    1563     7704     7705 1
    1564     7542     7543 1
    1565    10080    10081 1
    1566     9459     9460 1
    1567     7299     7300 1
    1568     3410     3411 1
    1569     1189     1190 1
    1570      991      992 1
    1571     7347     7348 1
    1572      682      683 1
    1573     2085     2086 1
    1574      853      854 1
    1575      440      443 1
    1576     1622     1624 1
    1577     5397     5398 1
    1578     9330     9331 1
    1579       75       76 1
    1580    11310    11312 1
    1581    10155    10156 1
    1582     1624     1625 1
    1583     8481     8482 1
    1584     4056     4057 1
    1585     4749     4750 1
    1586    10572    10573 1
    1587     8190     8191 1
    1588     4140     4142 1
    1589     4068     4070 1
    1590     3533     3532 1
    1591     6981     6982 1
    1592      488      490 1
    1593     1591     1592 1
    1594     1671     1672 1
    1595    11259    11261 1
    1596    10704    10706 1
    1597     6870     6872 1
    1598     4953     4955 1
    1599     7869     7871 1
    1600     7032     7034 1
    1601     5223     5224 1
    1602     5952     5954 1
    1603     5115     5117 1
    1604     5790     5792 1
    1605     6114     6116 1
    1606     6762     6764 1
    1607      689      690 1
    1608      260      261 1
    1609      776      777 1
    1610     5520     5521 1
    1611     7599     7601 1
    1612    10557    10558 1
    1613     5157     5158 1
    1614     2606     2607 1
    1615     1064     1065 1
    1616     1070     1069 1
    1617     1136     1137 1
    1618     7629     7630 1
    1619     2996     2997 1
    1620     2219     2220 1
    1621       46       47 1
    1622     4080     4082 1
    1623      325      328 1
    1624     1558     1559 1
    1625     1669     1670 1
    1626     3463     3464 1
    1627     1595     1596 1
    1628     3427     3428 1
    1629     1706     1707 1
    1630     8349     8350 1
    1631      952      953 1
    1632     2346     2344 1
    1633     7644     7645 1
    1634     2127     2128 1
    1635     6783     6785 1
    1636     3227     3228 1
    1637     9276     9277 1
    1638     1019     1018 1
    1639     2329     2330 1
    1640     2338     2339 1
    1641     3359     3360 1
    1642     4029     4030 1
    1643     3554     3555 1
    1644     7194     7195 1
    1645    11190    11191 1
    1646    11028    11029 1
    1647     4170     4171 1
    1648     4332     4333 1
    1649     9273     9274 1
    1650    10272    10273 1
    1651     8355     8356 1
    1652    10110    10111 1
    1653       74       75 1
    1654     7743     7745 1
    1655     2376     2377 1
    1656     2128     2129 1
    1657     3867     3869 1
    1658      360      362 1
    1659    10491    10493 1
    1660     9735     9737 1
    1661     4767     4769 1
    1662     3993     3994 1
    1663     3565     3566 1
    1664     7296     7297 1
    1665     1109     1110 1
    1666     1226     1227 1
    1667     2272     2271 1
    1668    11487    11488 1
    1669      347      348 1
    1670     1679     1681 1
    1671     1609     1610 1
    1672     1991     1992 1
    1673     5232     5233 1
    1674     8658     8659 1
    1675    10737    10738 1
    1676     6903     6904 1
    1677     6741     6742 1
    1678     5067     5068 1
    1679     4905     4906 1
    1680     2247     2248 1
    1681     2241     2242 1
    1682    10494    10495 1
    1683     2822     2823 1
    1684     3859     3860 1
    1685      292      293 1
    1686      255      256 1
    1687     1427     1428 1
    1688    10986    10988 1
    1689        2        4 1
    1690     7152     7154 1
    1691     2198     2199 1
    1692     2752     2753 1
    1693     3448     3449 1
    1694     9372     9373 1
    1695     4755     4756 1
    1696     5457     5458 1
    1697     7698     7699 1
    1698     3621     3622 1
    1699     3210     3211 1
    1700     5049     5050 1
    1701    11100    11102 1
    1702     5565     5567 1
    1703     2515     2516 1
    1704     2404     2405 1
    1705     2553     2554 1
    1706     2442     2443 1
    1707     2699     2700 1
    1708      656      659 1
    1709      638      639 1
    1710     9285     9287 1
    1711     8934     8936 1
    1712    11040    11042 1
    1713    10284    10286 1
    1714     7935     7937 1
    1715     4938     4940 1
    1716    10689    10691 1
    1717     8772     8774 1
    1718    11202    11204 1
    1719     5178     5179 1
    1720     1031     1030 1
    1721     4632     4634 1
    1722     6927     6929 1
    1723     7197     7199 1
    1724     4173     4175 1
    1725     9276     9278 1
    1726     5172     5174 1
    1727     7089     7091 1
    1728     9681     9683 1
    1729    11031    11033 1
    1730     7494     7496 1
    1731     2262     2265 1
    1732     6132     6133 1
    1733    10887    10888 1
    1734     7053     7054 1
    1735     4827     4828 1
    1736     6744     6745 1
    1737     1473     1474 1
    1738     7911     7912 1
    1739     3607     3608 1
    1740     3418     3419 1
    1741    11142    11143 1
    1742      435      436 1
    1743       61       62 1
    1744     7560     7562 1
    1745     1927     1928 1
    1746     3669     3670 1
    1747     4155     4156 1
    1748     5550     5551 1
    1749     3763     3764 1
    1750      564      565 1
    1751     7884     7886 1
    1752     6372     6374 1
    1753     9639     9641 1
    1754     8451     8453 1
    1755    10206    10208 1
    1756     8289     8291 1
    1757     5805     5807 1
    1758     7722     7724 1
    1759     4698     4700 1
    1760     9852     9853 1
    1761     6291     6292 1
    1762     1172     1173 1
    1763     1402     1403 1
    1764     1178     1179 1
    1765      634      635 1
    1766      850      851 1
    1767      538      539 1
    1768     7500     7502 1
    1769     4476     4478 1
    1770     4638     4640 1
    1771     7932     7934 1
    1772     5583     5585 1
    1773    11496    11498 1
    1774     9687     9689 1
    1775     5745     5747 1
    1776     8853     8854 1
    1777     5853     5855 1
    1778      663      664 1
    1779      709      710 1
    1780     3748     3749 1
    1781       72       73 1
    1782    10203    10205 1
    1783      275      274 1
    1784     3293     3294 1
    1785     4578     4579 1
    1786     5781     5783 1
    1787       69       70 1
    1788     6003     6005 1
    1789     9837     9839 1
    1790     4761     4763 1
    1791     5463     5465 1
    1792     7704     7706 1
    1793     7542     7544 1
    1794    10080    10082 1
    1795     9378     9380 1
    1796     9459     9461 1
    1797     7299     7301 1
    1798    11280    11282 1
    1799     2059     2060 1
    1800     1948     1949 1
    1801     2140     2141 1
    1802     2126     2105 1
    1803      576      578 1
    1804     2572     2573 1
    1805     8886     8887 1
    1806     1385     1384 1
    1807     7731     7732 1
    1808     2049     2050 1
    1809     4599     4601 1
    1810     9540     9542 1
    1811     9057     9059 1
    1812     6255     6256 1
    1813     2064     2065 1
    1814    10251    10252 1
    1815     8172     8173 1
    1816     5877     5878 1
    1817     7794     7795 1
    1818     9711     9712 1
    1819     2028     2029 1
    1820    11466    11467 1
    1821     6417     6418 1
    1822     3723     3725 1
    1823     6264     6266 1
    1824     4971     4972 1
    1825     8805     8806 1
    1826     9777     9778 1
    1827     4065     4066 1
    1828     3528     3529 1
    1829     8778     8779 1
    1830     4188     4189 1
    1831     5970     5971 1
    1832     8100     8101 1
    1833     5445     5447 1
    1834     5022     5023 1
    1835     6534     6535 1
    1836     7101     7102 1
    1837     9018     9019 1
    1838     4671     4672 1
    1839     5310     5312 1
    1840    10368    10369 1
    1841    11304    11306 1
    1842     7119     7121 1
    1843     8592     8593 1
    1844     4701     4703 1
    1845     3276     3277 1
    1846       14       15 1
    1847     2135     2136 1
    1848     1638     1637 1
    1849     1601     1600 1
    1850     4302     4303 1
    1851     7596     7597 1
    1852     9243     9244 1
    1853     5517     5518 1
    1854     7164     7165 1
    1855     9081     9082 1
    1856     9189     9190 1
    1857     2801     2800 1
    1858     1166     1167 1
    1859     2084     2083 1
    1860     1873     1872 1
    1861     7008     7010 1
    1862      326      328 1
    1863      218      220 1
    1864     1266     1267 1
    1865     9252     9253 1
    1866      662      661 1
    1867     5163     5164 1
    1868     1719     1720 1
    1869     1647     1648 1
    1870     1610     1611 1
    1871      364      363 1
    1872     1247     1246 1
    1873      808      807 1
    1874     7068     7070 1
    1875     8022     8023 1
    1876     2787     2788 1
    1877       24       23 1
    1878     2434     2435 1
    1879     7047     7049 1
    1880     4092     4094 1
    1881    11127    11128 1
    1882     1336     1337 1
    1883      828      829 1
    1884      939      940 1
    1885      876      877 1
    1886      984      985 1
    1887     7668     7669 1
    1888     4089     4091 1
    1889    10425    10426 1
    1890      592      593 1
    1891    10824    10825 1
    1892      135      134 1
    1893      249      248 1
    1894     1194     1195 1
    1895     1849     1850 1
    1896     7569     7571 1
    1897     1357     1358 1
    1898      962      963 1
    1899    10305    10307 1
    1900     3728     3729 1
    1901     6471     6473 1
    1902     3220     3221 1
    1903     1606     1607 1
    1904     3261     3262 1
    1905      548      550 1
    1906     1346     1347 1
    1907     8223     8224 1
    1908     1434     1435 1
    1909     2306     2307 1
    1910     3954     3955 1
    1911     4026     4027 1
    1912     7413     7415 1
    1913     3005     3006 1
    1914     1955     1956 1
    1915     2967     2968 1
    1916     2552     2553 1
    1917     1080     1079 1
    1918     1675     1674 1
    1919     6657     6659 1
    1920     4809     4811 1
    1921     6888     6890 1
    1922     6726     6728 1
    1923     9480     9482 1
    1924     9318     9320 1
    1925     3897     3899 1
    1926     5808     5810 1
    1927     9642     9644 1
    1928     7725     7727 1
    1929     3820     3821 1
    1930      126      127 1
    1931      742      743 1
    1932     2076     2077 1
    1933      430      431 1
    1934     2377     2379 1
    1935     1733     1734 1
    1936     1844     1845 1
    1937     1536     1537 1
    1938     3109     3110 1
    1939     9027     9028 1
    1940     4935     4936 1
    1941      114      115 1
    1942      682      661 1
    1943     1249     1250 1
    1944     8382     8383 1
    1945     9786     9787 1
    1946    10461    10462 1
    1947     5628     5629 1
    1948     6303     6304 1
    1949     8220     8221 1
    1950    10299    10300 1
    1951     1011     1012 1
    1952     9624     9625 1
    1953     6465     6466 1
    1954    11253    11255 1
    1955     1091     1092 1
    1956     1862     1863 1
    1957     1474     1475 1
    1958      625      626 1
    1959      700      701 1
    1960     1788     1789 1
    1961     1751     1752 1
    1962     7305     7307 1
    1963     3022     3023 1
    1964      764      765 1
    1965     9510     9512 1
    1966     8448     8449 1
    1967     2856     2859 1
    1968     7650     7651 1
    1969     1565     1567 1
    1970      418      419 1
    1971     8523     8524 1
    1972     5769     5770 1
    1973     5931     5932 1
    1974    10602    10603 1
    1975    11358    11359 1
    1976    11520    11521 1
    1977     8685     8686 1
    1978     6768     6769 1
    1979    11385    11387 1
    1980     6591     6593 1
    1981     3636     3637 1
    1982     2385     2386 1
    1983     2607     2608 1
    1984     2379     2380 1
    1985     2178     2179 1
    1986     7044     7046 1
    1987     5127     5129 1
    1988     1498     1499 1
    1989     2838     2839 1
    1990     7617     7618 1
    1991     3063     3064 1
    1992     4593     4594 1
    1993     8997     8998 1
    1994     2727     2728 1
    1995     1305     1304 1
    1996     3101     3102 1
    1997     2580     2582 1
    1998     4029     4031 1
    1999     1446     1447 1
    2000      679      680 1
    2001     7926     7928 1
    2002      966      967 1
    2003      640      641 1
    2004     5511     5512 1
    2005     3283     3284 1
    2006     7863     7865 1
    2007     6108     6110 1
    2008     2220     2221 1
    2009    10698    10700 1
    2010     5946     5948 1
    2011     5109     5111 1
    2012     4947     4949 1
    2013     6864     6866 1
    2014       44       45 1
    2015     9105     9107 1
    2016     5337     5338 1
    2017     9501     9503 1
    2018    11256    11258 1
    2019     5424     5426 1
    2020    11337    11339 1
    2021    11175    11177 1
    2022     7422     7424 1
    2023     9339     9341 1
    2024     5505     5507 1
    2025     9420     9422 1
    2026     8475     8476 1
    2027     6477     6478 1
    2028    10788    10789 1
    2029     4188     4190 1
    2030     1310     1311 1
    2031     4110     4111 1
    2032     7461     7462 1
    2033     3335     3336 1
    2034     3644     3643 1
    2035     3792     3791 1
    2036     1044     1045 1
    2037     3826     3827 1
    2038       98       99 1
    2039     1560     1561 1
    2040      904      905 1
    2041     9993     9994 1
    2042     2614     2615 1
    2043      626      627 1
    2044      800      801 1
    2045     1039     1040 1
    2046     8076     8078 1
    2047     2901     2900 1
    2048      151      152 1
    2049     2463     2464 1
    2050      530      531 1
    2051     2273     2274 1
    2052     3614     3615 1
    2053     2582     2583 1
    2054     5724     5726 1
    2055    11475    11477 1
    2056      770      771 1
    2057      522      523 1
    2058     3343     3344 1
    2059     3351     3352 1
    2060     7566     7567 1
    2061    11400    11401 1
    2062     4461     4462 1
    2063     5568     5569 1
    2064     7899     7900 1
    2065     4623     4624 1
    2066     5730     5731 1
    2067     7485     7486 1
    2068     4542     4543 1
    2069    11481    11482 1
    2070     1180     1181 1
    2071     9477     9479 1
    2072     9315     9317 1
    2073    11313    11315 1
    2074     5400     5402 1
    2075     7398     7400 1
    2076    11151    11153 1
    2077     9396     9398 1
    2078     5481     5483 1
    2079    11232    11234 1
    2080     2206     2205 1
    2081     3912     3914 1
    2082     2962     2961 1
    2083     7854     7856 1
    2084     3275     3276 1
    2085    10554    10555 1
    2086     9798     9799 1
    2087     5640     5641 1
    2088     8259     8260 1
    2089    10176    10177 1
    2090     1146     1147 1
    2091     6180     6181 1
    2092     9636     9637 1
    2093    10014    10015 1
    2094     9933     9935 1
    2095     8811     8813 1
    2096     7440     7441 1
    2097     7860     7862 1
    2098      144      146 1
    2099     3957     3958 1
    2100     7680     7681 1
    2101     1884     1883 1
    2102     4302     4304 1
    2103     9081     9083 1
    2104     7596     7598 1
    2105     7164     7166 1
    2106    11430    11432 1
    2107     1810     1809 1
    2108     9189     9191 1
    2109     9243     9245 1
    2110     5421     5422 1
    2111      369      370 1
    2112     3533     3535 1
    2113    10956    10957 1
    2114     2232     2231 1
    2115     3378     3379 1
    2116      101      102 1
    2117      367      368 1
    2118     2029     2030 1
    2119     2251     2252 1
    2120     2023     2024 1
    2121     7116     7118 1
    2122     8655     8657 1
    2123     2674     2675 1
    2124     2098     2099 1
    2125     1535     1536 1
    2126     8733     8735 1
    2127     5697     5699 1
    2128     3538     3539 1
    2129     4323     4324 1
    2130     7185     7186 1
    2131     4944     4945 1
    2132    10695    10696 1
    2133     4161     4162 1
    2134     9264     9265 1
    2135     5106     5107 1
    2136    11181    11182 1
    2137    10152    10153 1
    2138     8154     8155 1
    2139     8235     8236 1
    2140     6399     6400 1
    2141    10233    10234 1
    2142     6237     6238 1
    2143     9990     9991 1
    2144     6156     6157 1
    2145     6564     6566 1
    2146     2042     2043 1
    2147    10590    10591 1
    2148     5217     5218 1
    2149     2732     2733 1
    2150     3975     3977 1
    2151      283      304 1
    2152    10722    10723 1
    2153     3473     3474 1
    2154     2211     2212 1
    2155     2521     2522 1
    2156     2770     2771 1
    2157     3192     3193 1
    2158     7683     7685 1
    2159     1355     1356 1
    2160      423      424 1
    2161      861      862 1
    2162      866      868 1
    2163     7215     7217 1
    2164     8808     8810 1
    2165     8781     8783 1
    2166     4866     4868 1
    2167    10536    10538 1
    2168     4191     4193 1
    2169      856      857 1
    2170     6945     6947 1
    2171     6621     6623 1
    2172     5988     5989 1
    2173     7365     7366 1
    2174     9984     9985 1
    2175     9822     9823 1
    2176     9444     9445 1
    2177     4503     4504 1
    2178     9606     9607 1
    2179      275      276 1
    2180     5559     5560 1
    2181     2323     2325 1
    2182     2370     2372 1
    2183     5397     5399 1
    2184     1852     1853 1
    2185      869      870 1
    2186     2784     2785 1
    2187      269      268 1
    2188     8697     8699 1
    2189      204      205 1
    2190     1265     1266 1
    2191     2662     2663 1
    2192     4794     4795 1
    2193     1755     1757 1
    2194     6711     6712 1
    2195     2121     2120 1
    2196     9819     9821 1
    2197    10731    10733 1
    2198     6897     6899 1
    2199     8544     8546 1
    2200     8652     8654 1
    2201    10623    10625 1
    2202     6789     6791 1
    2203     6546     6548 1
    2204    10380    10382 1
    2205     8625     8627 1
    2206     6735     6737 1
    2207     5223     5225 1
    2208      362      363 1
    2209      818      819 1
    2210     4812     4813 1
    2211     8436     8437 1
    2212     5520     5522 1
    2213    10557    10559 1
    2214     5157     5159 1
    2215     5088     5089 1
    2216     1171     1172 1
    2217     6456     6457 1
    2218      655      656 1
    2219      609      610 1
    2220     3515     3516 1
    2221     5919     5920 1
    2222    11346    11347 1
    2223     8052     8053 1
    2224    10131    10132 1
    2225     5757     5758 1
    2226     6135     6136 1
    2227     1209     1210 1
    2228     7656     7657 1
    2229      811      814 1
    2230      379      382 1
    2231      459      460 1
    2232     2729     2730 1
    2233      891      892 1
    2234      678      679 1
    2235     3930     3931 1
    2236     2192     2193 1
    2237     1162     1163 1
    2238     1439     1440 1
    2239     2303     2304 1
    2240     6666     6667 1
    2241        8       11 1
    2242     8289     8290 1
    2243     8724     8726 1
    2244     1372     1373 1
    2245     1534     1535 1
    2246     8250     8251 1
    2247     4539     4541 1
    2248    11397    11399 1
    2249     7563     7565 1
    2250     1478     1479 1
    2251     8169     8170 1
    2252     5646     5648 1
    2253     6414     6415 1
    2254    10248    10249 1
    2255     5268     5270 1
    2256    10857    10859 1
    2257     1826     1827 1
    2258     2916     2915 1
    2259     8130     8132 1
    2260     8367     8368 1
    2261     3137     3138 1
    2262        8        9 1
    2263     4818     4819 1
    2264     4620     4621 1
    2265     3593     3594 1
    2266     9660     9661 1
    2267    10407    10408 1
    2268     6573     6574 1
    2269     8571     8572 1
    2270     6330     6331 1
    2271     8409     8410 1
    2272     2195     2194 1
    2273     1717     1719 1
    2274    11208    11210 1
    2275     1945     1946 1
    2276     4026     4028 1
    2277     3954     3956 1
    2278     8163     8164 1
    2279     9384     9386 1
    2280      562      561 1
    2281     9288     9289 1
    2282     8586     8587 1
    2283     3415     3416 1
    2284     9387     9388 1
    2285     3000     3001 1
    2286     4608     4609 1
    2287     4770     4771 1
    2288     9549     9550 1
    2289     7632     7633 1
    2290     7470     7471 1
    2291     3839     3840 1
    2292      848      849 1
    2293      422      423 1
    2294     5232     5234 1
    2295     3014     3015 1
    2296     5022     5024 1
    2297      829      830 1
    2298     5235     5236 1
    2299     5067     5069 1
    2300     8658     8660 1
    2301    10737    10739 1
    2302     6903     6905 1
    2303     6741     6743 1
    2304    10494    10496 1
    2305     4824     4826 1
    2306    10656    10658 1
    2307     4905     4907 1
    2308      888      889 1
    2309     2739     2738 1
    2310     2736     2737 1
    2311     2763     2764 1
    2312     4887     4888 1
    2313      984      983 1
    2314     3015     3016 1
    2315     1503     1504 1
    2316    10392    10394 1
    2317     6558     6560 1
    2318     8556     8558 1
    2319     8637     8639 1
    2320    10635    10637 1
    2321     6801     6803 1
    2322     1807     1808 1
    2323     1602     1603 1
    2324     1639     1640 1
    2325     1301     1302 1
    2326     2978     2977 1
    2327     2222     2221 1
    2328     6123     6124 1
    2329     6144     6145 1
    2330     6744     6746 1
    2331     1008     1010 1
    2332      797      798 1
    2333      908      909 1
    2334     4248     4250 1
    2335      428      429 1
    2336      425      424 1
    2337     8943     8945 1
    2338       27       28 1
    2339     3963     3964 1
    2340     7593     7594 1
    2341     8430     8431 1
    2342    10347    10348 1
    2343    11427    11428 1
    2344     9186     9187 1
    2345     5514     5515 1
    2346     9348     9349 1
    2347     2601     2602 1
    2348     2712     2713 1
    2349     6513     6514 1
    2350     1212     1211 1
    2351     5385     5386 1
    2352     4278     4279 1
    2353     1935     1936 1
    2354     3094     3095 1
    2355     9006     9007 1
    2356     9852     9854 1
    2357     1484     1485 1
    2358     8232     8233 1
    2359     6315     6316 1
    2360    10230    10231 1
    2361    10500    10501 1
    2362     5073     5074 1
    2363      112      113 1
    2364     4911     4912 1
    2365     8313     8314 1
    2366     6747     6748 1
    2367     6909     6910 1
    2368     1974     1975 1
    2369     2691     2692 1
    2370     2310     2312 1
    2371     3299     3300 1
    2372     1901     1902 1
    2373     2656     2657 1
    2374     2212     2213 1
    2375     3987     3989 1
    2376     3116     3117 1
    2377     2655     2654 1
    2378     1957     1958 1
    2379     2356     2357 1
    2380     2245     2246 1
    2381     2131     2132 1
    2382    11142    11144 1
    2383     3918     3920 1
    2384     2311     2312 1
    2385     2647     2648 1
    2386     2107     2108 1
    2387     3344     3345 1
    2388     7686     7687 1
    2389     4662     4663 1
    2390     6093     6094 1
    2391     5013     5014 1
    2392     9765     9766 1
    2393    10764    10765 1
    2394     4752     4753 1
    2395      956      957 1
    2396      755      756 1
    2397     4851     4852 1
    2398     4917     4918 1
    2399    10668    10669 1
    2400     8751     8752 1
    2401     3969     3970 1
    2402     4998     4999 1
    2403    10749    10750 1
    2404     8913     8914 1
    2405     4836     4837 1
    2406     6723     6724 1
    2407     5877     5879 1
    2408     7794     7796 1
    2409     9711     9713 1
    2410     6255     6257 1
    2411     6417     6419 1
    2412    10251    10253 1
    2413     8640     8641 1
    2414     4806     4807 1
    2415    10719    10720 1
    2416     8172     8174 1
    2417    10038    10039 1
    2418     4983     4985 1
    2419    10404    10405 1
    2420     6570     6571 1
    2421     9864     9865 1
    2422     7947     7948 1
    2423     5949     5950 1
    2424     3957     3959 1
    2425     3823     3824 1
    2426     7866     7867 1
    2427     8568     8569 1
    2428      451      452 1
    2429     1240     1241 1
    2430     1966     1968 1
    2431     1643     1644 1
    2432     5001     5003 1
    2433     4650     4652 1
    2434     6081     6083 1
    2435     9915     9917 1
    2436     9753     9755 1
    2437    10752    10754 1
    2438     1288     1289 1
    2439     7674     7676 1
    2440     8835     8837 1
    2441     4839     4841 1
    2442      521      522 1
    2443     1496     1497 1
    2444     9885     9887 1
    2445     9456     9458 1
    2446     6495     6496 1
    2447     8493     8494 1
    2448      207      208 1
    2449      636      637 1
    2450     2653     2654 1
    2451      816      817 1
    2452     2968     2969 1
    2453     3062     3061 1
    2454     3715     3716 1
    2455     3078     3079 1
    2456      910      911 1
    2457    10677    10679 1
    2458     8922     8924 1
    2459     8760     8762 1
    2460     7923     7925 1
    2461     4926     4928 1
    2462    10839    10841 1
    2463     9678     9680 1
    2464     5844     5846 1
    2465     3347     3348 1
    2466     2716     2715 1
    2467     6480     6481 1
    2468      416      417 1
    2469     2041     2042 1
    2470      440      442 1
    2471       96       97 1
    2472     3340     3341 1
    2473     3349     3350 1
    2474     1325     1326 1
    2475     3376     3377 1
    2476    10728    10730 1
    2477     2427     2428 1
    2478     3428     3429 1
    2479     7332     7333 1
    2480     4056     4058 1
    2481     1420     1421 1
    2482     1765     1766 1
    2483     1802     1803 1
    2484     1728     1729 1
    2485     6834     6836 1
    2486     6672     6674 1
    2487     8508     8510 1
    2488     8589     8591 1
    2489     8670     8672 1
    2490     6402     6403 1
    2491     6753     6755 1
    2492    10506    10508 1
    2493     1306     1307 1
    2494     1792     1793 1
    2495     1866     1867 1
    2496     1273     1274 1
    2497     3576     3577 1
    2498     9399     9400 1
    2499      818      820 1
    2500     1693     1694 1
    2501     1116     1117 1
    2502     4935     4937 1
    2503     6435     6436 1
    2504     3930     3932 1
    2505     9573     9575 1
    2506    10302    10304 1
    2507     6468     6470 1
    2508     3990     3992 1
    2509     2309     2312 1
    2510     3903     3904 1
    2511     1978     1979 1
    2512     3764     3765 1
    2513     1139     1140 1
    2514      727      728 1
    2515     3713     3714 1
    2516     5931     5933 1
    2517     5769     5771 1
    2518    11358    11360 1
    2519     1661     1662 1
    2520    10602    10604 1
    2521     8523     8525 1
    2522    11520    11522 1
    2523     2817     2818 1
    2524     6768     6770 1
    2525     8685     8687 1
    2526     4890     4892 1
    2527     1283     1284 1
    2528     1501     1502 1
    2529     2628     2629 1
    2530     2739     2740 1
    2531      747      746 1
    2532     3437     3438 1
    2533     1568     1569 1
    2534     3055     3056 1
    2535     1000     1001 1
    2536     1228     1229 1
    2537      750      751 1
    2538      312      313 1
    2539     1111     1112 1
    2540      889      890 1
    2541    10644    10646 1
    2542    10482    10484 1
    2543     2556     2557 1
    2544    10374    10376 1
    2545     6540     6542 1
    2546     4893     4895 1
    2547     3361     3362 1
    2548     5124     5125 1
    2549    11037    11038 1
    2550     7203     7204 1
    2551     9336     9337 1
    2552     6879     6880 1
    2553     7743     7744 1
    2554     4719     4720 1
    2555     2485     2486 1
    2556    11253    11254 1
    2557     7611     7613 1
    2558     9366     9368 1
    2559     6531     6533 1
    2560    10365    10367 1
    2561     5532     5534 1
    2562     9204     9206 1
    2563     1482     1483 1
    2564    11445    11447 1
    2565     8448     8450 1
    2566     1616     1617 1
    2567     1542     1543 1
    2568     1804     1805 1
    2569     3888     3889 1
    2570     6699     6701 1
    2571      171      170 1
    2572     1824     1825 1
    2573     1787     1788 1
    2574     1750     1751 1
    2575    10695    10697 1
    2576      510      511 1
    2577     5145     5146 1
    2578     8901     8903 1
    2579      593      594 1
    2580     1019     1020 1
    2581     3073     3074 1
    2582      905      906 1
    2583      794      795 1
    2584     4299     4301 1
    2585      668      669 1
    2586    10710    10711 1
    2587    10980    10981 1
    2588      975      976 1
    2589     8265     8266 1
    2590     2574     2575 1
    2591     2037     2038 1
    2592      771      773 1
    2593     2238     2239 1
    2594     1034     1037 1
    2595     2126     2127 1
    2596     3474     3475 1
    2597     3511     3512 1
    2598      656      658 1
    2599     1054     1055 1
    2600     8214     8215 1
    2601     6297     6298 1
    2602    10293    10294 1
    2603    10455    10456 1
    2604     8376     8377 1
    2605     6459     6460 1
    2606     1425     1426 1
    2607    10542    10543 1
    2608     5859     5861 1
    2609     7776     7778 1
    2610    11448    11450 1
    2611     7965     7967 1
    2612     9882     9884 1
    2613     9693     9695 1
    2614     1175     1176 1
    2615     2509     2510 1
    2616     2758     2759 1
    2617     2845     2846 1
    2618      296      297 1
    2619      302      303 1
    2620     1052     1053 1
    2621     8691     8692 1
    2622     5937     5938 1
    2623     5775     5776 1
    2624    11364    11365 1
    2625     8529     8530 1
    2626     3433     3434 1
    2627    10608    10609 1
    2628      751      752 1
    2629    11526    11527 1
    2630     2259     2260 1
    2631      964      965 1
    2632     4017     4018 1
    2633     2313     2314 1
    2634     6024     6026 1
    2635     3981     3982 1
    2636      946      945 1
    2637     4101     4102 1
    2638     1584     1586 1
    2639    10404    10406 1
    2640     6570     6572 1
    2641      930      931 1
    2642     9864     9866 1
    2643     7947     7949 1
    2644     5949     5951 1
    2645     7866     7868 1
    2646     8568     8570 1
    2647     6327     6329 1
    2648     6030     6032 1
    2649     4155     4157 1
    2650     3113     3114 1
    2651     5421     5423 1
    2652     4014     4016 1
    2653     3294     3295 1
    2654     5544     5545 1
    2655     6492     6493 1
    2656    10326    10327 1
    2657     7290     7291 1
    2658     9453     9454 1
    2659     4113     4114 1
    2660     7455     7456 1
    2661     3830     3831 1
    2662     3719     3720 1
    2663     3793     3794 1
    2664     4674     4675 1
    2665     7833     7834 1
    2666     4941     4942 1
    2667     9099     9100 1
    2668    10692    10693 1
    2669     3488     3489 1
    2670     5940     5941 1
    2671     7857     7858 1
    2672     5103     5104 1
    2673     8937     8938 1
    2674     5778     5779 1
    2675     6102     6103 1
    2676     3053     3054 1
    2677     1380     1381 1
    2678     2942     2943 1
    2679     2040     2042 1
    2680     2948     2949 1
    2681     2517     2516 1
    2682       40       41 1
    2683     2518     2519 1
    2684      620      621 1
    2685     2767     2768 1
    2686     1762     1761 1
    2687     3308     3307 1
    2688     1081     1084 1
    2689     1066     1067 1
    2690     9714     9715 1
    2691     5880     5881 1
    2692     7797     7798 1
    2693     6636     6637 1
    2694     1356     1357 1
    2695     6960     6961 1
    2696    11469    11470 1
    2697     3184     3185 1
    2698      862      863 1
    2699     4881     4882 1
    2700     1833     1834 1
    2701     5910     5911 1
    2702     3757     3758 1
    2703     7707     7708 1
    2704     4062     4063 1
    2705     6186     6187 1
    2706    10527    10528 1
    2707     9045     9046 1
    2708     1208     1209 1
    2709     3147     3148 1
    2710     4968     4970 1
    2711     3315     3316 1
    2712     3752     3753 1
    2713      193      192 1
    2714    11079    11080 1
    2715     1714     1715 1
    2716     6222     6224 1
    2717    10056    10058 1
    2718     9516     9518 1
    2719     4737     4739 1
    2720     7761     7763 1
    2721     5682     5684 1
    2722     6060     6062 1
    2723     8139     8141 1
    2724    11136    11138 1
    2725     1257     1258 1
    2726     1644     1645 1
    2727      254      255 1
    2728     3403     3404 1
    2729     1369     1370 1
    2730     8619     8620 1
    2731     3123     3124 1
    2732     8436     8438 1
    2733      926      929 1
    2734     2819     2820 1
    2735    11073    11075 1
    2736      825      826 1
    2737     3744     3745 1
    2738     5352     5353 1
    2739     8268     8269 1
    2740    10185    10186 1
    2741     7431     7432 1
    2742    11265    11266 1
    2743     6351     6352 1
    2744     4407     4408 1
    2745     3036     3037 1
    2746     2274     2275 1
    2747     4569     4570 1
    2748     1437     1438 1
    2749    11436    11438 1
    2750     9114     9116 1
    2751     8649     8651 1
    2752     5100     5101 1
    2753     3578     3579 1
    2754     1734     1735 1
    2755     1845     1846 1
    2756     1919     1920 1
    2757     1697     1698 1
    2758    10707    10708 1
    2759    11247    11248 1
    2760     6942     6944 1
    2761     5862     5864 1
    2762     7779     7781 1
    2763     9195     9196 1
    2764     6807     6809 1
    2765     4956     4957 1
    2766     6873     6874 1
    2767     3945     3947 1
    2768     1592     1593 1
    2769     3814     3815 1
    2770     3215     3216 1
    2771     8949     8951 1
    2772     6051     6053 1
    2773     1938     1940 1
    2774     1060     1061 1
    2775     2386     2387 1
    2776     2608     2609 1
    2777     3247     3248 1
    2778     2275     2276 1
    2779     3037     3038 1
    2780     1413     1414 1
    2781     8367     8369 1
    2782      792      793 1
    2783      900      901 1
    2784     4818     4820 1
    2785     5577     5578 1
    2786     2917     2918 1
    2787     2878     2879 1
    2788     7464     7465 1
    2789     9381     9382 1
    2790     9543     9544 1
    2791     5898     5899 1
    2792     7815     7816 1
    2793     9732     9733 1
    2794     9570     9571 1
    2795     4602     4603 1
    2796     7653     7654 1
    2797     4764     4765 1
    2798     6879     6881 1
    2799     9660     9662 1
    2800     2160     2161 1
    2801     1819     1820 1
    2802       95       96 1
    2803     2452     2453 1
    2804     6408     6409 1
    2805     3861     3862 1
    2806    10464    10466 1
    2807     1815     1816 1
    2808      224      225 1
    2809     2152     2153 1
    2810     9288     9290 1
    2811     4629     4630 1
    2812     2034     2033 1
    2813     1880     1881 1
    2814     4773     4774 1
    2815     2454     2455 1
    2816     2994     2995 1
    2817     2478     2479 1
    2818     3018     3019 1
    2819     3631     3632 1
    2820     1964     1965 1
    2821     5328     5330 1
    2822     9549     9551 1
    2823     9387     9389 1
    2824     7632     7634 1
    2825     7470     7472 1
    2826     7308     7310 1
    2827     4770     4772 1
    2828     1215     1216 1
    2829     4608     4610 1
    2830     5715     5717 1
    2831     2199     2200 1
    2832     5313     5315 1
    2833     1909     1907 1
    2834     1150     1151 1
    2835       67       68 1
    2836     2053     2055 1
    2837     2128     2130 1
    2838     3189     3188 1
    2839     2004     2005 1
    2840     2874     2875 1
    2841       47       48 1
    2842     2985     2986 1
    2843     3870     3871 1
    2844     9726     9728 1
    2845     2640     2641 1
    2846     1426     1427 1
    2847     8940     8942 1
    2848    11019    11021 1
    2849      935      933 1
    2850     1038     1039 1
    2851     6366     6367 1
    2852     6123     6125 1
    2853     9351     9352 1
    2854     1453     1454 1
    2855      216      215 1
    2856     8955     8956 1
    2857      149      150 1
    2858      527      528 1
    2859     2312     2313 1
    2860      832      833 1
    2861     6516     6518 1
    2862     5199     5200 1
    2863     3255     3256 1
    2864     5385     5387 1
    2865     4278     4280 1
    2866     2535     2536 1
    2867     3467     3468 1
    2868     2904     2906 1
    2869     1184     1185 1
    2870     2731     2732 1
    2871     2842     2843 1
    2872     6288     6289 1
    2873     9960     9961 1
    2874     7314     7315 1
    2875     9393     9394 1
    2876     7476     7477 1
    2877     5721     5722 1
    2878     7638     7639 1
    2879     9555     9556 1
    2880     4776     4777 1
    2881     4614     4615 1
    2882    11154    11155 1
    2883      987      988 1
    2884     1033     1034 1
    2885      490      491 1
    2886     2817     2816 1
    2887      115      116 1
    2888     2980     2981 1
    2889     3004     3005 1
    2890     2242     2243 1
    2891     2353     2354 1
    2892     5820     5822 1
    2893     4713     4715 1
    2894     2638     2639 1
    2895     3509     3508 1
    2896     3790     3791 1
    2897     4506     4508 1
    2898     5382     5383 1
    2899      455      456 1
    2900      285      287 1
    2901     8985     8986 1
    2902    10899    10900 1
    2903     7227     7228 1
    2904     2058     2059 1
    2905    10818    10819 1
    2906     6822     6823 1
    2907     8820     8821 1
    2908     4203     4204 1
    2909     8901     8902 1
    2910     7065     7066 1
    2911     4986     4987 1
    2912     4752     4754 1
    2913      165      166 1
    2914     7320     7321 1
    2915    11424    11425 1
    2916     7158     7159 1
    2917     7590     7591 1
    2918     9075     9076 1
    2919     4296     4297 1
    2920     9345     9346 1
    2921     9237     9238 1
    2922     9183     9184 1
    2923     7686     7688 1
    2924     6093     6095 1
    2925     9765     9767 1
    2926     4662     4664 1
    2927     5013     5015 1
    2928    10764    10766 1
    2929     4851     4853 1
    2930     8847     8849 1
    2931    10722    10724 1
    2932     9927     9929 1
    2933     3417     3418 1
    2934     2612     2613 1
    2935     2396     2397 1
    2936     9060     9062 1
    2937     1952     1953 1
    2938    11118    11120 1
    2939     8121     8123 1
    2940     2576     2577 1
    2941    11286    11287 1
    2942     1563     1562 1
    2943     3801     3802 1
    2944     3981     3983 1
    2945     4101     4103 1
    2946     6648     6650 1
    2947     8727     8729 1
    2948     8484     8486 1
    2949     6486     6488 1
    2950    10320    10322 1
    2951    10563    10565 1
    2952     8322     8324 1
    2953    10587    10589 1
    2954     3023     3024 1
    2955     1970     1971 1
    2956     3401     3402 1
    2957     1313     1314 1
    2958      737      738 1
    2959     3600     3601 1
    2960     3797     3798 1
    2961     1832     1833 1
    2962     3960     3961 1
    2963     4008     4009 1
    2964    10800    10801 1
    2965     3669     3668 1
    2966     2444     2443 1
    2967     2446     2447 1
    2968     4044     4046 1
    2969     3237     3238 1
    2970     3755     3754 1
    2971     1348     1349 1
    2972     3567     3568 1
    2973     3328     3329 1
    2974     1120     1121 1
    2975      583      584 1
    2976    11487    11489 1
    2977     4467     4469 1
    2978     7572     7574 1
    2979     9813     9815 1
    2980     5979     5981 1
    2981      184      185 1
    2982     7491     7493 1
    2983      468      470 1
    2984     5736     5738 1
    2985     9975     9977 1
    2986      344      345 1
    2987     5196     5197 1
    2988     1506     1507 1
    2989     3842     3843 1
    2990      338      339 1
    2991     1383     1384 1
    2992     1371     1372 1
    2993     5589     5591 1
    2994    10932    10933 1
    2995     2236     2238 1
    2996     1199     1200 1
    2997    10329    10330 1
    2998    10761    10762 1
    2999     6657     6658 1
    3000    10776    10778 1
    3001     8763     8764 1
    3002     3921     3923 1
    3003     4566     4568 1
    3004    10680    10681 1
    3005     1335     1336 1
    3006      725      726 1
    3007    10938    10940 1
    3008      836      837 1
    3009      614      615 1
    3010     1058     1059 1
    3011      970      971 1
    3012     3028     3029 1
    3013     2716     2717 1
    3014     2380     2381 1
    3015     9222     9224 1
    3016     8142     8144 1
    3017     8400     8401 1
    3018     1690     1691 1
    3019     8412     8413 1
    3020     3834     3835 1
    3021     3529     3530 1
    3022    10650    10651 1
    3023     5061     5063 1
    3024     3933     3934 1
    3025     4410     4412 1
    3026     4341     4342 1
    3027     9282     9283 1
    3028      480      481 1
    3029     7248     7249 1
    3030     4386     4387 1
    3031     9084     9085 1
    3032     7329     7330 1
    3033     5331     5332 1
    3034     4224     4225 1
    3035     4305     4306 1
    3036     9246     9247 1
    3037     9003     9004 1
    3038     7167     7168 1
    3039     1905     1906 1
    3040      659      660 1
    3041     6792     6794 1
    3042     5280     5282 1
    3043     3966     3968 1
    3044     9804     9805 1
    3045    11124    11125 1
    3046     1941     1942 1
    3047     1766     1767 1
    3048     2457     2456 1
    3049     1729     1730 1
    3050     5718     5719 1
    3051     6228     6229 1
    3052     9873     9874 1
    3053     7956     7957 1
    3054     6039     6040 1
    3055     6066     6067 1
    3056    10062    10063 1
    3057     8145     8146 1
    3058     2501     2502 1
    3059     2825     2826 1
    3060     2813     2814 1
    3061      863      864 1
    3062     3223     3224 1
    3063     3779     3780 1
    3064      724      725 1
    3065     1057     1058 1
    3066     3608     3609 1
    3067     3323     3324 1
    3068     3753     3754 1
    3069     1547     1548 1
    3070     2931     2932 1
    3071     2391     2392 1
    3072     2096     2094 1
    3073     2703     2704 1
    3074     9561     9563 1
    3075     2820     2821 1
    3076     3277     3278 1
    3077     5997     5998 1
    3078     7995     7996 1
    3079      630      632 1
    3080      139      140 1
    3081     6765     6766 1
    3082     2401     2402 1
    3083      346      347 1
    3084     1108     1109 1
    3085     4335     4337 1
    3086    11490    11492 1
    3087     5739     5741 1
    3088     4353     4354 1
    3089     7755     7757 1
    3090     4731     4733 1
    3091     2439     2440 1
    3092     6216     6218 1
    3093     2016     2017 1
    3094       50       51 1
    3095      754      755 1
    3096     6069     6070 1
    3097    10983    10984 1
    3098     9390     9391 1
    3099     7635     7636 1
    3100     8148     8149 1
    3101     6798     6799 1
    3102     9228     9229 1
    3103     6231     6232 1
    3104     6987     6988 1
    3105     4965     4967 1
    3106     8718     8720 1
    3107     5235     5237 1
    3108     8880     8882 1
    3109    10797    10799 1
    3110     6882     6884 1
    3111     5154     5156 1
    3112     9231     9233 1
    3113    10959    10961 1
    3114     6990     6992 1
    3115      953      954 1
    3116     1573     1574 1
    3117     1773     1774 1
    3118     5982     5983 1
    3119     3296     3295 1
    3120     1636     1637 1
    3121     1599     1600 1
    3122     1375     1374 1
    3123     8520     8522 1
    3124    10599    10601 1
    3125     8601     8603 1
    3126     6684     6686 1
    3127      297      298 1
    3128     6846     6848 1
    3129     2853     2854 1
    3130     8682     8684 1
    3131     6765     6767 1
    3132     2154     2157 1
    3133    11181    11183 1
    3134     8364     8365 1
    3135     2396     2375 1
    3136      792      794 1
    3137     2430     2431 1
    3138     3099     3100 1
    3139     2106     2107 1
    3140     2182     2183 1
    3141     2957     2960 1
    3142     1646     1647 1
    3143     3341     3342 1
    3144     1083     1084 1
    3145     6105     6106 1
    3146     3257     3258 1
    3147      359      360 1
    3148       93       94 1
    3149     3337     3338 1
    3150       30       31 1
    3151     2598     2599 1
    3152     1210     1211 1
    3153     1428     1429 1
    3154     3273     3274 1
    3155     5547     5548 1
    3156    11043    11045 1
    3157    10584    10586 1
    3158     8505     8507 1
    3159     8667     8669 1
    3160     8586     8588 1
    3161     7128     7130 1
    3162     9207     9209 1
    3163     6831     6833 1
    3164     6669     6671 1
    3165     3263     3264 1
    3166    10296    10298 1
    3167     9567     9569 1
    3168     3550     3551 1
    3169     7641     7642 1
    3170     4311     4313 1
    3171     9252     9254 1
    3172     1154     1155 1
    3173      833      834 1
    3174     5991     5992 1
    3175     9825     9826 1
    3176     7989     7990 1
    3177     1140     1141 1
    3178     3703     3704 1
    3179     3436     3437 1
    3180     3851     3852 1
    3181     3396     3397 1
    3182     3879     3881 1
    3183     3509     3510 1
    3184     6702     6704 1
    3185     1659     1660 1
    3186     1195     1196 1
    3187     1836     1837 1
    3188      760      761 1
    3189     3867     3868 1
    3190     1047     1048 1
    3191     3963     3965 1
    3192     3570     3571 1
    3193     2988     2987 1
    3194     3075     3076 1
    3195     1132     1133 1
    3196     4281     4283 1
    3197    11301    11303 1
    3198    10710    10712 1
    3199    10980    10982 1
    3200     7968     7969 1
    3201     1990     1991 1
    3202     2215     2216 1
    3203     1843     1844 1
    3204     4404     4405 1
    3205     6492     6494 1
    3206     2130     2131 1
    3207     2892     2893 1
    3208     7290     7292 1
    3209     3999     4001 1
    3210    10815    10817 1
    3211      969      968 1
    3212     8271     8272 1
    3213    10107    10108 1
    3214     6354     6355 1
    3215    10188    10189 1
    3216     8352     8353 1
    3217    10269    10270 1
    3218      673      674 1
    3219      244      245 1
    3220     1361     1362 1
    3221      784      785 1
    3222     1068     1069 1
    3223     3785     3786 1
    3224     9591     9593 1
    3225     9429     9431 1
    3226     6432     6434 1
    3227     6594     6596 1
    3228    10428    10430 1
    3229     4488     4490 1
    3230     7512     7514 1
    3231     3393     3394 1
    3232     7350     7352 1
    3233     5595     5597 1
    3234     3462     3463 1
    3235     2262     2264 1
    3236    10803    10805 1
    3237     8331     8332 1
    3238     8028     8029 1
    3239      708      709 1
    3240     1483     1484 1
    3241     2986     2987 1
    3242     2218     2219 1
    3243     9045     9047 1
    3244     1926     1928 1
    3245     2720     2699 1
    3246     3628     3630 1
    3247     9000     9001 1
    3248     9273     9275 1
    3249    11028    11030 1
    3250    11190    11192 1
    3251     7194     7196 1
    3252     4170     4172 1
    3253     4332     4334 1
    3254    10110    10112 1
    3255    10272    10274 1
    3256     8355     8357 1
    3257      911      912 1
    3258       31       32 1
    3259     2775     2776 1
    3260      447      449 1
    3261     2177     2178 1
    3262     2165     2166 1
    3263     2558     2559 1
    3264      954      955 1
    3265      979      980 1
    3266      501      502 1
    3267     1087     1088 1
    3268     1319     1320 1
    3269     9402     9403 1
    3270     5406     5407 1
    3271     9483     9484 1
    3272     9321     9322 1
    3273    11319    11320 1
    3274    11157    11158 1
    3275     7404     7405 1
    3276     5487     5488 1
    3277    11238    11239 1
    3278     2288     2289 1
    3279     7980     7982 1
    3280     2978     2979 1
    3281     1995     1996 1
    3282    10206    10207 1
    3283     5100     5102 1
    3284     1768     1769 1
    3285     1620     1621 1
    3286     1694     1695 1
    3287     1916     1917 1
    3288     1842     1843 1
    3289    10680    10682 1
    3290     3840     3841 1
    3291     8790     8791 1
    3292     7914     7916 1
    3293     4647     4649 1
    3294     6078     6080 1
    3295     6225     6226 1
    3296     7143     7144 1
    3297     9789     9790 1
    3298     1282     1281 1
    3299     7671     7673 1
    3300    10545    10546 1
    3301     9669     9671 1
    3302     5784     5786 1
    3303      844      845 1
    3304     2281     2282 1
    3305     3250     3251 1
    3306     1703     1704 1
    3307     2667     2668 1
    3308    10971    10972 1
    3309      684      685 1
    3310     8850     8851 1
    3311     2545     2546 1
    3312     1791     1792 1
    3313     1754     1755 1
    3314     1247     1248 1
    3315     2473     2474 1
    3316     4782     4783 1
    3317     3087     3088 1
    3318     1508     1509 1
    3319     4143     4144 1
    3320     9945     9947 1
    3321     4629     4631 1
    3322     9846     9847 1
    3323     3383     3384 1
    3324     6012     6013 1
    3325    10089    10090 1
    3326     7848     7849 1
    3327     8010     8011 1
    3328     3374     3375 1
    3329     1354     1355 1
    3330      854      855 1
    3331     8091     8092 1
    3332     4773     4775 1
    3333      173      174 1
    3334      570      571 1
    3335     8040     8041 1
    3336     4023     4025 1
    3337     2936     2937 1
    3338     2180     2181 1
    3339      525      524 1
    3340     3682     3683 1
    3341     3933     3935 1
    3342     2734     2735 1
    3343     2947     2948 1
    3344    10923    10925 1
    3345     2547     2548 1
    3346     2544     2545 1
    3347     3152     3153 1
    3348     2436     2437 1
    3349       53       54 1
    3350     2483     2484 1
    3351      632      633 1
    3352     6858     6859 1
    3353     8709     8710 1
    3354     9978     9979 1
    3355     1499     1500 1
    3356     3455     3456 1
    3357     7626     7627 1
    3358     7302     7303 1
    3359     2897     2898 1
    3360      328      329 1
    3361     5853     5854 1
    3362     3355     3354 1
    3363       79       80 1
    3364     8832     8834 1
    3365     5961     5963 1
    3366      694      695 1
    3367     3519     3520 1
    3368     1127     1128 1
    3369      263      264 1
    3370     1016     1017 1
    3371     8874     8875 1
    3372     3301     3302 1
    3373      514      515 1
    3374       62       63 1
    3375      760      757 1
    3376     4011     4012 1
    3377     5622     5623 1
    3378     9807     9808 1
    3379     2289     2290 1
    3380     9618     9619 1
    3381    11535    11536 1
    3382     5973     5974 1
    3383     6900     6901 1
    3384     9780     9781 1
    3385     9969     9970 1
    3386      780      781 1
    3387      354      355 1
    3388      762      763 1
    3389     8100     8102 1
    3390     4239     4241 1
    3391     5184     5186 1
    3392     9018     9020 1
    3393     7101     7103 1
    3394    10017    10019 1
    3395     7695     7697 1
    3396    10368    10370 1
    3397     4671     4673 1
    3398    11097    11099 1
    3399      736      715 1
    3400    11214    11216 1
    3401    11418    11420 1
    3402     1396     1397 1
    3403     2045     2044 1
    3404      771      772 1
    3405      817      818 1
    3406     1707     1708 1
    3407     3046     3048 1
    3408    11004    11005 1
    3409    10107    10109 1
    3410     8352     8354 1
    3411     6354     6356 1
    3412    10188    10190 1
    3413     8271     8273 1
    3414    10269    10271 1
    3415     3001     3002 1
    3416     2026     2027 1
    3417     8955     8957 1
    3418     9696     9697 1
    3419     2640     2643 1
    3420     3405     3406 1
    3421     2652     2653 1
    3422     2477     2478 1
    3423     2431     2432 1
    3424      143      144 1
    3425     2369     2370 1
    3426     3873     3874 1
    3427     2323     2324 1
    3428     2795     2798 1
    3429     2096     2093 1
    3430      774      773 1
    3431      573      572 1
    3432    11064    11065 1
    3433     6390     6391 1
    3434     8118     8119 1
    3435     6201     6202 1
    3436     8469     8470 1
    3437    10035    10036 1
    3438    10224    10225 1
    3439     8307     8308 1
    3440      533      534 1
    3441     1519     1520 1
    3442     2924     2925 1
    3443     3611     3612 1
    3444     8985     8987 1
    3445     3468     3469 1
    3446     3505     3506 1
    3447     3653     3654 1
    3448     1135     1136 1
    3449     2105     2106 1
    3450     2645     2646 1
    3451     3722     3723 1
    3452     3796     3797 1
    3453     3759     3760 1
    3454     9261     9262 1
    3455     4203     4205 1
    3456    11016    11017 1
    3457     7182     7183 1
    3458     4320     4321 1
    3459    10899    10901 1
    3460     7227     7229 1
    3461    10098    10099 1
    3462     6822     6824 1
    3463     4914     4915 1
    3464     8820     8822 1
    3465     3267     3268 1
    3466     3199     3200 1
    3467     1398     1399 1
    3468     1174     1175 1
    3469     2624     2625 1
    3470     3170     3171 1
    3471     2891     2892 1
    3472     2894     2895 1
    3473     6138     6139 1
    3474     8055     8056 1
    3475    10134    10135 1
    3476     8973     8974 1
    3477    11052    11053 1
    3478     9297     9298 1
    3479     5139     5140 1
    3480      568      569 1
    3481      457      458 1
    3482      747      748 1
    3483      969      970 1
    3484     1352     1353 1
    3485      858      859 1
    3486     8295     8297 1
    3487     8457     8459 1
    3488     6378     6380 1
    3489    10212    10214 1
    3490     1497     1498 1
    3491     8310     8311 1
    3492     4260     4261 1
    3493    11118    11119 1
    3494     6393     6394 1
    3495     8121     8122 1
    3496     5205     5206 1
    3497     5043     5044 1
    3498     5556     5557 1
    3499     6204     6205 1
    3500     8472     8473 1
    3501     9663     9664 1
    3502     7602     7603 1
    3503     9048     9050 1
    3504     4533     4535 1
    3505     1167     1168 1
    3506      761      762 1
    3507     3261     3260 1
    3508     2529     2530 1
    3509    10881    10882 1
    3510     3366     3365 1
    3511     7428     7430 1
    3512     1271     1272 1
    3513     2659     2660 1
    3514    10800    10802 1
    3515     2872     2873 1
    3516    10965    10966 1
    3517     2180     2159 1
    3518     2936     2915 1
    3519     3524     3525 1
    3520     8220     8222 1
    3521    10461    10463 1
    3522     8382     8384 1
    3523     9786     9788 1
    3524     6303     6305 1
    3525     5628     5630 1
    3526     2398     2399 1
    3527    10299    10301 1
    3528     2646     2647 1
    3529     9624     9626 1
    3530     6756     6758 1
    3531     1874     1875 1
    3532     2856     2858 1
    3533     1191     1192 1
    3534     1572     1573 1
    3535     5196     5198 1
    3536    10872    10873 1
    3537      456      457 1
    3538    10932    10934 1
    3539     1583     1584 1
    3540     1190     1191 1
    3541     1657     1658 1
    3542     7659     7660 1
    3543      287      288 1
    3544      407      408 1
    3545      293      294 1
    3546     1338     1339 1
    3547      769      770 1
    3548     3111     3112 1
    3549     7341     7343 1
    3550     1736     1738 1
    3551     2389     2390 1
    3552     2500     2501 1
    3553     2812     2813 1
    3554      180      181 1
    3555    10851    10853 1
    3556     4242     4243 1
    3557     9054     9056 1
    3558    10650    10652 1
    3559     2445     2446 1
    3560     3077     3078 1
    3561     9597     9598 1
    3562     7518     7519 1
    3563     5277     5278 1
    3564     6276     6277 1
    3565    10434    10435 1
    3566     9435     9436 1
    3567     5439     5440 1
    3568      909      910 1
    3569     7356     7357 1
    3570     8193     8194 1
    3571     2428     2429 1
    3572     5835     5836 1
    3573     2808     2809 1
    3574     1554     1555 1
    3575     2560     2561 1
    3576     1597     1598 1
    3577     1241     1242 1
    3578     1634     1635 1
    3579     1587     1588 1
    3580     3302     3303 1
    3581     5895     5896 1
    3582    11124    11126 1
    3583     2595     2593 1
    3584     7023     7024 1
    3585     3032     3033 1
    3586     5283     5285 1
    3587     2906     2907 1
    3588     3279     3280 1
    3589     7011     7012 1
    3590     2537     2538 1
    3591     2096     2097 1
    3592     1507     1508 1
    3593     6228     6230 1
    3594     9873     9875 1
    3595     7956     7958 1
    3596     6039     6041 1
    3597     6066     6068 1
    3598    10062    10064 1
    3599     8145     8147 1
    3600     5889     5891 1
    3601     8229     8230 1
    3602    10470    10471 1
    3603     7293     7294 1
    3604     3645     3646 1
    3605     5187     5189 1
    3606     1375     1376 1
    3607     1102     1103 1
    3608      562      563 1
    3609      957      958 1
    3610     8361     8362 1
    3611     2074     2076 1
    3612     7188     7190 1
    3613     4326     4328 1
    3614    10104    10106 1
    3615    11184    11186 1
    3616    11022    11024 1
    3617     4164     4166 1
    3618     2001     2002 1
    3619     9267     9269 1
    3620     3367     3368 1
    3621     2226     2227 1
    3622     7335     7336 1
    3623     7020     7022 1
    3624     6180     6182 1
    3625    10176    10178 1
    3626     9798     9800 1
    3627     8259     8261 1
    3628     5640     5642 1
    3629     9636     9638 1
    3630    10014    10016 1
    3631    10662    10663 1
    3632     7359     7360 1
    3633     8805     8807 1
    3634     9816     9818 1
    3635     5982     5984 1
    3636     9978     9980 1
    3637     9600     9602 1
    3638    10950    10952 1
    3639    10788    10790 1
    3640     8871     8873 1
    3641    11328    11330 1
    3642     5604     5606 1
    3643     9564     9566 1
    3644     2910     2913 1
    3645      122      123 1
    3646     4764     4766 1
    3647     8082     8083 1
    3648     3228     3229 1
    3649      153      154 1
    3650    10818    10820 1
    3651     8751     8753 1
    3652     8364     8366 1
    3653     2342     2321 1
    3654     1853     1854 1
    3655     1627     1628 1
    3656     3546     3545 1
    3657     2136     2137 1
    3658     2898     2899 1
    3659     1142     1141 1
    3660     3853     3852 1
    3661     2450     2451 1
    3662     1699     1700 1
    3663     3915     3916 1
    3664     4107     4108 1
    3665     2934     2935 1
    3666     2411     2412 1
    3667     2945     2946 1
    3668     2621     2622 1
    3669     6237     6239 1
    3670     8154     8156 1
    3671    10233    10235 1
    3672     6399     6401 1
    3673     8235     8237 1
    3674     9990     9992 1
    3675    10152    10154 1
    3676     6156     6158 1
    3677     5547     5549 1
    3678     3658     3659 1
    3679     3806     3807 1
    3680     3769     3770 1
    3681     3695     3696 1
    3682     3285     3284 1
    3683        6        7 1
    3684     8358     8360 1
    3685     3612     3613 1
    3686     1481     1482 1
    3687     6045     6046 1
    3688     6234     6235 1
    3689     8151     8152 1
    3690    10068    10069 1
    3691     9879     9880 1
    3692     7962     7963 1
    3693     6072     6073 1
    3694     5988     5990 1
    3695     7365     7367 1
    3696     9984     9986 1
    3697     9822     9824 1
    3698     9444     9446 1
    3699     9606     9608 1
    3700     7527     7529 1
    3701     4503     4505 1
    3702     5610     5612 1
    3703     1593     1594 1
    3704     1818     1819 1
    3705       45       46 1
    3706     8055     8057 1
    3707     6138     6140 1
    3708    10134    10136 1
    3709    11052    11054 1
    3710     8973     8975 1
    3711     9297     9299 1
    3712     5139     5141 1
    3713     3718     3719 1
    3714     2157     2158 1
    3715     3681     3682 1
    3716     3829     3830 1
    3717     2995     2996 1
    3718     3160     3161 1
    3719      697      698 1
    3720     2683     2684 1
    3721     2854     2855 1
    3722     2785     2786 1
    3723      116      117 1
    3724     4071     4072 1
    3725     2585     2586 1
    3726     2383     2382 1
    3727     8895     8896 1
    3728     6777     6778 1
    3729     1900     1901 1
    3730    10128    10129 1
    3731     8049     8050 1
    3732     3310     3311 1
    3733    11046    11047 1
    3734     3596     3597 1
    3735     3114     3115 1
    3736     1330     1331 1
    3737     8967     8968 1
    3738     7749     7750 1
    3739     9504     9505 1
    3740     5670     5671 1
    3741    10044    10045 1
    3742     6210     6211 1
    3743     6048     6049 1
    3744     8127     8128 1
    3745     4725     4726 1
    3746     5484     5486 1
    3747     1168     1169 1
    3748     3701     3702 1
    3749     6786     6787 1
    3750    10620    10621 1
    3751     5274     5275 1
    3752     4545     4546 1
    3753     5652     5653 1
    3754     5247     5248 1
    3755     5085     5086 1
    3756     2836     2837 1
    3757     5436     5437 1
    3758    10998    10999 1
    3759      778      779 1
    3760     4551     4553 1
    3761      667      668 1
    3762     1487     1488 1
    3763    11157    11159 1
    3764     3948     3949 1
    3765     4020     4021 1
    3766      316      317 1
    3767     4233     4234 1
    3768     7257     7258 1
    3769     2591     2592 1
    3770    11091    11092 1
    3771     9174     9175 1
    3772     9012     9013 1
    3773     4395     4396 1
    3774     5340     5341 1
    3775     5496     5497 1
    3776     3597     3598 1
    3777     3603     3604 1
    3778       81       82 1
    3779     3318     3319 1
    3780     3640     3641 1
    3781     9066     9067 1
    3782     8844     8845 1
    3783     8859     8861 1
    3784     8943     8944 1
    3785     1576     1575 1
    3786     2306     2305 1
    3787     3832     3833 1
    3788     3021     3022 1
    3789    10974    10975 1
    3790     6330     6332 1
    3791     8571     8573 1
    3792    10407    10409 1
    3793     6573     6575 1
    3794     8409     8411 1
    3795     3070     3071 1
    3796    10353    10355 1
    3797     1942     1943 1
    3798     8316     8318 1
    3799      763      764 1
    3800     5460     5461 1
    3801     7539     7540 1
    3802     7890     7891 1
    3803     9645     9646 1
    3804     5811     5812 1
    3805     4677     4678 1
    3806     4704     4705 1
    3807     5712     5713 1
    3808     7701     7702 1
    3809     4605     4606 1
    3810    10707    10709 1
    3811     2459     2460 1
    3812     6732     6734 1
    3813     3960     3962 1
    3814     4008     4010 1
    3815     1223     1224 1
    3816     9426     9428 1
    3817     5322     5324 1
    3818     7239     7241 1
    3819     4215     4217 1
    3820     9588     9590 1
    3821     7347     7349 1
    3822     9156     9158 1
    3823     8994     8996 1
    3824     1820     1821 1
    3825     7509     7511 1
    3826     3506     3507 1
    3827     3543     3544 1
    3828     3469     3470 1
    3829      358      359 1
    3830     9627     9629 1
    3831     1095     1096 1
    3832    10617    10619 1
    3833     3296     3297 1
    3834     4632     4633 1
    3835     1043     1044 1
    3836      906      907 1
    3837     9840     9841 1
    3838     6006     6007 1
    3839    10083    10084 1
    3840     7842     7843 1
    3841     8085     8086 1
    3842     8004     8005 1
    3843     2236     2237 1
    3844     3024     3025 1
    3845     1259     1260 1
    3846       13       14 1
    3847      103      104 1
    3848     8190     8192 1
    3849     7149     7150 1
    3850     8280     8281 1
    3851     4581     4582 1
    3852    10197    10198 1
    3853    11277    11278 1
    3854     5364     5365 1
    3855     6363     6364 1
    3856     4419     4420 1
    3857     2492     2493 1
    3858     7443     7444 1
    3859       68       69 1
    3860      508      509 1
    3861      619      620 1
    3862     9846     9848 1
    3863     6012     6014 1
    3864    10089    10091 1
    3865     8010     8012 1
    3866     7848     7850 1
    3867     8091     8093 1
    3868     4530     4531 1
    3869     2720     2721 1
    3870     5955     5957 1
    3871     8040     8042 1
    3872      412      391 1
    3873     2859     2860 1
    3874     2184     2182 1
    3875     1712     1711 1
    3876     1823     1822 1
    3877     1786     1785 1
    3878     1749     1748 1
    3879     2185     2186 1
    3880      283      282 1
    3881     3596     3595 1
    3882     5541     5542 1
    3883     2661     2662 1
    3884      332      335 1
    3885      980      983 1
    3886     8664     8666 1
    3887     8394     8396 1
    3888     6477     6479 1
    3889     8475     8477 1
    3890    10311    10313 1
    3891     8232     8234 1
    3892     4911     4913 1
    3893     8313     8315 1
    3894     6747     6749 1
    3895     5073     5075 1
    3896      845      846 1
    3897     4830     4831 1
    3898     6396     6397 1
    3899      262      261 1
    3900     1790     1791 1
    3901     1753     1754 1
    3902     8007     8009 1
    3903    10086    10088 1
    3904     8277     8279 1
    3905     6360     6362 1
    3906    10194    10196 1
    3907    10113    10115 1
    3908     7845     7847 1
    3909     6009     6011 1
    3910     9843     9845 1
    3911     2802     2805 1
    3912     7626     7628 1
    3913    10113    10114 1
    3914     2964     2965 1
    3915     5706     5707 1
    3916     9165     9166 1
    3917    10665    10666 1
    3918    10140    10141 1
    3919      173      170 1
    3920     4836     4838 1
    3921     1394     1395 1
    3922     1400     1401 1
    3923     1182     1183 1
    3924    11133    11135 1
    3925     1975     1976 1
    3926     9453     9455 1
    3927      557      558 1
    3928      154      155 1
    3929     7356     7358 1
    3930     5037     5038 1
    3931     4443     4444 1
    3932      978      979 1
    3933      990      991 1
    3934     5049     5051 1
    3935    10719    10721 1
    3936     6885     6887 1
    3937    10476    10478 1
    3938    10638    10640 1
    3939     8640     8642 1
    3940     6723     6725 1
    3941     4806     4808 1
    3942     4887     4889 1
    3943     1381     1382 1
    3944     1263     1264 1
    3945      410      411 1
    3946     1055     1056 1
    3947      611      612 1
    3948     8016     8017 1
    3949     4641     4642 1
    3950     7584     7585 1
    3951    11418    11419 1
    3952     7854     7855 1
    3953     5667     5668 1
    3954     6018     6019 1
    3955    11499    11500 1
    3956     7503     7504 1
    3957     4560     4561 1
    3958     4875     4877 1
    3959    11463    11465 1
    3960    10605    10606 1
    3961     6369     6371 1
    3962     4659     4660 1
    3963    11403    11404 1
    3964     8541     8542 1
    3965     6786     6788 1
    3966    10620    10622 1
    3967     5274     5276 1
    3968     5652     5654 1
    3969     5247     5249 1
    3970     5085     5087 1
    3971     5436     5438 1
    3972     4545     4547 1
    3973    10998    11000 1
    3974      732      733 1
    3975     3678     3679 1
    3976     3789     3790 1
    3977     8874     8876 1
    3978     2530     2531 1
    3979      452      453 1
    3980     1445     1444 1
    3981     2679     2678 1
    3982     9471     9472 1
    3983     9171     9172 1
    3984     4392     4393 1
    3985    11088    11089 1
    3986     9090     9091 1
    3987     7173     7174 1
    3988     4311     4312 1
    3989     7254     7255 1
    3990      749      750 1
    3991     2921     2922 1
    3992     4230     4231 1
    3993     1522     1523 1
    3994     3766     3767 1
    3995     1318     1319 1
    3996     5643     5644 1
    3997    10035    10037 1
    3998     4455     4456 1
    3999     7479     7480 1
    4000     5562     5563 1
    4001     8469     8471 1
    4002      703      706 1
    4003    11394    11395 1
    4004     7560     7561 1
    4005     8118     8120 1
    4006     8307     8309 1
    4007     4287     4288 1
    4008     1958     1959 1
    4009     2132     2133 1
    4010     5535     5536 1
    4011     4509     4510 1
    4012     2560     2562 1
    4013     4596     4598 1
    4014     3924     3925 1
    4015     3972     3973 1
    4016    10914    10915 1
    4017     1890     1891 1
    4018     8952     8953 1
    4019     9663     9665 1
    4020      977      978 1
    4021     9939     9940 1
    4022     1161     1162 1
    4023     6696     6697 1
    4024     1992     1993 1
    4025     4779     4780 1
    4026     2227     2228 1
    4027    10746    10747 1
    4028     1996     1997 1
    4029     1468     1469 1
    4030      580      581 1
    4031    11130    11132 1
    4032     3694     3693 1
    4033     3657     3656 1
    4034     1200     1201 1
    4035     8388     8390 1
    4036      230      231 1
    4037       18       19 1
    4038      406      407 1
    4039     3125     3126 1
    4040     3876     3877 1
    4041     6126     6127 1
    4042     7326     7328 1
    4043     8547     8548 1
    4044     2843     2844 1
    4045     4146     4147 1
    4046     7731     7733 1
    4047     3485     3484 1
    4048      127      128 1
    4049     3559     3558 1
    4050     5928     5929 1
    4051    11355    11356 1
    4052    10020    10022 1
    4053        1        4 1
    4054     6114     6115 1
    4055     8385     8386 1
    4056    11382    11383 1
    4057     9735     9736 1
    4058     5442     5443 1
    4059     5307     5308 1
    4060     6468     6469 1
    4061     6279     6280 1
    4062     9546     9547 1
    4063     5280     5281 1
    4064    10626    10627 1
    4065     1292     1291 1
    4066     2167     2168 1
    4067     2710     2711 1
    4068    10059    10061 1
    4069    11139    11141 1
    4070     9336     9338 1
    4071     4719     4721 1
    4072     5124     5126 1
    4073     7203     7205 1
    4074     5826     5828 1
    4075     7905     7907 1
    4076     4341     4343 1
    4077    11199    11201 1
    4078     9282     9284 1
    4079     9498     9500 1
    4080     9690     9691 1
    4081      601      602 1
    4082      555      556 1
    4083     2790     2789 1
    4084     3112     3113 1
    4085     5172     5173 1
    4086      485      484 1
    4087     7110     7111 1
    4088     8622     8623 1
    4089     6801     6802 1
    4090     7383     7384 1
    4091     6951     6952 1
    4092     9138     9139 1
    4093    11379    11380 1
    4094     4359     4360 1
    4095     4521     4522 1
    4096     8787     8788 1
    4097     4440     4441 1
    4098    11298    11299 1
    4099     5304     5305 1
    4100    10431    10432 1
    4101      900      902 1
    4102     8034     8036 1
    4103     4038     4040 1
    4104     9615     9616 1
    4105     3084     3085 1
    4106     8505     8506 1
    4107     4758     4759 1
    4108     8379     8380 1
    4109    10647    10648 1
    4110     1914     1915 1
    4111     1655     1656 1
    4112     4548     4550 1
    4113     8577     8578 1
    4114     6579     6580 1
    4115    10413    10414 1
    4116     6336     6337 1
    4117     8415     8416 1
    4118    10872    10874 1
    4119    10425    10427 1
    4120     3745     3746 1
    4121     2852     2853 1
    4122    10266    10268 1
    4123     1327     1328 1
    4124     3485     3486 1
    4125     3559     3560 1
    4126     3638     3639 1
    4127     1421     1422 1
    4128     1002     1003 1
    4129      348      349 1
    4130      885      886 1
    4131     1230     1231 1
    4132     1286     1287 1
    4133     4977     4978 1
    4134     2188     2189 1
    4135     3422     3423 1
    4136     3198     3199 1
    4137     3201     3202 1
    4138     6567     6569 1
    4139     8565     8567 1
    4140    10401    10403 1
    4141     2121     2122 1
    4142     6324     6326 1
    4143     8403     8405 1
    4144     3399     3400 1
    4145     6933     6934 1
    4146     7095     7096 1
    4147     5772     5773 1
    4148     1398     1397 1
    4149     5934     5935 1
    4150     1548     1549 1
    4151    10929    10930 1
    4152    11523    11524 1
    4153    11361    11362 1
    4154     8529     8531 1
    4155     5775     5777 1
    4156    11364    11366 1
    4157     5937     5939 1
    4158      923      924 1
    4159     6774     6776 1
    4160    10608    10610 1
    4161     8691     8693 1
    4162    11526    11528 1
    4163     3674     3675 1
    4164    10662    10664 1
    4165     6630     6632 1
    4166     9303     9305 1
    4167    10140    10142 1
    4168     8979     8981 1
    4169     5874     5876 1
    4170     7791     7793 1
    4171    11058    11060 1
    4172     9708     9710 1
    4173     6954     6956 1
    4174     8061     8063 1
    4175     7845     7846 1
    4176     4323     4325 1
    4177     9264     9266 1
    4178     1057     1056 1
    4179     5133     5134 1
    4180      229      250 1
    4181     9051     9052 1
    4182     3818     3820 1
    4183     3795     3796 1
    4184     3684     3685 1
    4185     3124     3125 1
    4186     2538     2539 1
    4187     1937     1938 1
    4188     3747     3748 1
    4189     3317     3318 1
    4190     4674     4676 1
    4191      996      995 1
    4192      327      328 1
    4193      219      220 1
    4194     9027     9029 1
    4195     2250     2251 1
    4196     7830     7831 1
    4197      311      312 1
    4198     2666     2667 1
    4199     6030     6031 1
    4200     3371     3372 1
    4201     3807     3808 1
    4202     3616     3617 1
    4203     3770     3771 1
    4204     3696     3697 1
    4205     3783     3784 1
    4206     4131     4132 1
    4207     4059     4060 1
    4208     5433     5434 1
    4209     5271     5272 1
    4210     6270     6271 1
    4211    10860    10861 1
    4212     8187     8188 1
    4213     9942     9943 1
    4214     8025     8026 1
    4215     2630     2631 1
    4216      558      559 1
    4217     2414     2415 1
    4218     7857     7859 1
    4219     9099     9101 1
    4220     4941     4943 1
    4221     5940     5942 1
    4222    10692    10694 1
    4223     6102     6104 1
    4224     5103     5105 1
    4225     8937     8939 1
    4226     2057     2058 1
    4227     3008     3009 1
    4228     2357     2358 1
    4229     7650     7652 1
    4230     5586     5587 1
    4231     4479     4480 1
    4232     3544     3545 1
    4233     2319     2320 1
    4234     2015     2016 1
    4235     3507     3508 1
    4236     7335     7337 1
    4237     2629     2630 1
    4238     3496     3497 1
    4239     2245     2244 1
    4240     6639     6640 1
    4241     6963     6964 1
    4242     4803     4804 1
    4243     3617     3618 1
    4244     3654     3655 1
    4245      138      139 1
    4246     8799     8800 1
    4247     2907     2908 1
    4248     4884     4885 1
    4249     3580     3581 1
    4250    10806    10808 1
    4251     4785     4787 1
    4252     7797     7799 1
    4253     5880     5882 1
    4254    11469    11471 1
    4255     6636     6638 1
    4256     1495     1496 1
    4257     6960     6962 1
    4258     9714     9716 1
    4259     9849     9850 1
    4260     1696     1697 1
    4261     1918     1919 1
    4262     8094     8095 1
    4263      814      815 1
    4264     1307     1308 1
    4265     1867     1868 1
    4266     1491     1490 1
    4267     2790     2791 1
    4268    11274    11275 1
    4269      295      294 1
    4270     7824     7825 1
    4271      366      367 1
    4272     2288     2267 1
    4273       62       64 1
    4274     4011     4013 1
    4275     3375     3376 1
    4276     2677     2678 1
    4277      916      917 1
    4278     6738     6740 1
    4279     9033     9035 1
    4280      274      272 1
    4281     2779     2780 1
    4282      602      603 1
    4283     2539     2540 1
    4284     2971     2972 1
    4285     3350     3351 1
    4286     1418     1419 1
    4287     7461     7463 1
    4288     8895     8897 1
    4289     3609     3611 1
    4290     8703     8704 1
    4291      536      535 1
    4292     5781     5782 1
    4293     7860     7861 1
    4294    10101    10102 1
    4295     6024     6025 1
    4296     6348     6349 1
    4297    10182    10183 1
    4298     5943     5944 1
    4299     7941     7942 1
    4300     7587     7588 1
    4301     9180     9181 1
    4302     5508     5509 1
    4303    10341    10342 1
    4304     8424     8425 1
    4305    11421    11422 1
    4306     9342     9343 1
    4307     6507     6508 1
    4308     8643     8645 1
    4309    10398    10400 1
    4310     7134     7135 1
    4311    10968    10969 1
    4312      330      331 1
    4313     7887     7889 1
    4314     3882     3884 1
    4315     3504     3505 1
    4316     3846     3847 1
    4317     3735     3736 1
    4318     3431     3432 1
    4319     5373     5374 1
    4320     7371     7372 1
    4321     4347     4348 1
    4322     2651     2652 1
    4323     6894     6895 1
    4324    10728    10729 1
    4325     6381     6382 1
    4326     4815     4816 1
    4327     7893     7894 1
    4328     6732     6733 1
    4329     4707     4708 1
    4330     5814     5815 1
    4331     4437     4438 1
    4332     9648     9649 1
    4333      238      239 1
    4334     5865     5867 1
    4335     9699     9701 1
    4336     9888     9890 1
    4337    11454    11456 1
    4338     7971     7973 1
    4339     7782     7784 1
    4340     7230     7231 1
    4341     2423     2424 1
    4342     8823     8824 1
    4343    10443    10444 1
    4344     6609     6610 1
    4345    10902    10903 1
    4346    10362    10363 1
    4347     4206     4207 1
    4348     6528     6529 1
    4349     6825     6826 1
    4350     2529     2528 1
    4351     4206     4208 1
    4352    10560    10561 1
    4353     9066     9068 1
    4354    10842    10843 1
    4355     8730     8731 1
    4356      492      493 1
    4357     1032     1033 1
    4358     2326     2327 1
    4359     9747     9748 1
    4360      336      337 1
    4361     2729     2728 1
    4362     5985     5987 1
    4363     1628     1629 1
    4364     8679     8680 1
    4365     9570     9572 1
    4366     9732     9734 1
    4367     5898     5900 1
    4368     7815     7817 1
    4369     7464     7466 1
    4370     9381     9383 1
    4371     9543     9545 1
    4372       35       36 1
    4373     4602     4604 1
    4374     7302     7304 1
    4375     5136     5138 1
    4376    10974    10976 1
    4377     2959     2960 1
    4378      391      392 1
    4379     2080     2081 1
    4380      779      780 1
    4381     2579     2582 1
    4382     3242     3243 1
    4383      169      168 1
    4384     3429     3430 1
    4385      125      126 1
    4386     8373     8374 1
    4387     5649     5650 1
    4388      116      119 1
    4389     6837     6838 1
    4390     9213     9214 1
    4391     1966     1967 1
    4392     8673     8674 1
    4393     8970     8971 1
    4394    11049    11050 1
    4395     6972     6973 1
    4396     1218     1219 1
    4397     8511     8512 1
    4398     6675     6676 1
    4399     2499     2500 1
    4400      196      175 1
    4401     9897     9899 1
    4402      605      606 1
    4403     4848     4850 1
    4404    11517    11518 1
    4405     6645     6647 1
    4406     8103     8105 1
    4407     5766     5767 1
    4408     4308     4309 1
    4409     9249     9250 1
    4410     8319     8321 1
    4411    10317    10319 1
    4412     6267     6269 1
    4413     8481     8483 1
    4414     8022     8024 1
    4415     9111     9113 1
    4416     3031     3032 1
    4417     1468     1467 1
    4418     3572     3573 1
    4419     2235     2236 1
    4420     2776     2777 1
    4421     2039     2042 1
    4422     7785     7787 1
    4423     5166     5167 1
    4424    10767    10768 1
    4425     5826     5827 1
    4426    10947    10948 1
    4427     7950     7951 1
    4428     8706     8707 1
    4429     8868     8869 1
    4430    10785    10786 1
    4431     6033     6034 1
    4432     9867     9868 1
    4433     4146     4148 1
    4434     1015     1016 1
    4435     1021     1022 1
    4436     3762     3763 1
    4437     5703     5704 1
    4438       94       95 1
    4439     3584     3585 1
    4440      158      157 1
    4441     3236     3235 1
    4442     3380     3381 1
    4443      663      665 1
    4444     1067     1068 1
    4445     5553     5555 1
    4446     6510     6512 1
    4447     3837     3839 1
    4448     7029     7030 1
    4449     4581     4583 1
    4450     4419     4421 1
    4451     5364     5366 1
    4452    10197    10199 1
    4453    11277    11279 1
    4454     8280     8282 1
    4455     6363     6365 1
    4456     7443     7445 1
    4457     3451     3452 1
    4458     2517     2518 1
    4459     2766     2767 1
    4460      844      823 1
    4461     2222     2223 1
    4462     2884     2886 1
    4463     1177     1176 1
    4464     5721     5723 1
    4465     7476     7478 1
    4466     9960     9962 1
    4467     7638     7640 1
    4468     6288     6290 1
    4469     1267     1268 1
    4470     9555     9557 1
    4471     7314     7316 1
    4472     9393     9395 1
    4473     4776     4778 1
    4474     1582     1583 1
    4475    11166    11167 1
    4476    10230    10232 1
    4477     6396     6398 1
    4478     4830     4832 1
    4479     2208     2209 1
    4480     5799     5800 1
    4481     1315     1316 1
    4482     3273     3272 1
    4483    10665    10667 1
    4484     1187     1186 1
    4485     9831     9833 1
    4486     5148     5149 1
    4487      867      868 1
    4488      231      233 1
    4489     9828     9829 1
    4490     6201     6203 1
    4491     3813     3814 1
    4492     7161     7162 1
    4493     9159     9160 1
    4494     4218     4219 1
    4495    11076    11077 1
    4496     7242     7243 1
    4497     7323     7324 1
    4498     4299     4300 1
    4499     9240     9241 1
    4500     9078     9079 1
    4501     4380     4381 1
    4502     4872     4873 1
    4503     3510     3511 1
    4504     4560     4562 1
    4505     2148     2150 1
    4506     2833     2834 1
    4507     3266     3267 1
    4508     3269     3270 1
    4509     2944     2945 1
    4510     2620     2621 1
    4511      172      170 1
    4512      202      203 1
    4513     7449     7450 1
    4514     4587     4588 1
    4515     4425     4426 1
    4516     4857     4858 1
    4517     4668     4669 1
    4518     6369     6370 1
    4519    10770    10771 1
    4520     9771     9772 1
    4521     5019     5020 1
    4522     5370     5371 1
    4523     4974     4976 1
    4524     7401     7402 1
    4525     8286     8287 1
    4526     3225     3226 1
    4527     1915     1916 1
    4528     7062     7063 1
    4529    10605    10607 1
    4530     1667     1668 1
    4531     4845     4846 1
    4532     4437     4439 1
    4533     5814     5816 1
    4534      574      553 1
    4535     6894     6896 1
    4536     6381     6383 1
    4537     4815     4817 1
    4538     8460     8462 1
    4539     7893     7895 1
    4540     9648     9650 1
    4541     8298     8300 1
    4542      399      400 1
    4543     1114     1093 1
    4544     3915     3917 1
    4545     4107     4109 1
    4546     2458     2459 1
    4547     2680     2681 1
    4548     3384     3385 1
    4549     2056     2057 1
    4550     3285     3286 1
    4551     3308     3309 1
    4552     2964     2967 1
    4553     1985     1988 1
    4554     2046     2047 1
    4555     6660     6661 1
    4556    10332    10333 1
    4557     8334     8335 1
    4558     3153     3154 1
    4559     8496     8497 1
    4560    10575    10576 1
    4561     6498     6499 1
    4562     8739     8740 1
    4563     9471     9473 1
    4564     8454     8455 1
    4565     6375     6376 1
    4566     4431     4432 1
    4567     5376     5377 1
    4568     4269     4270 1
    4569     8292     8293 1
    4570    10209    10210 1
    4571     5538     5539 1
    4572    10449    10450 1
    4573     7803     7804 1
    4574     7173     7175 1
    4575     9090     9092 1
    4576    11088    11090 1
    4577     1891     1892 1
    4578     4230     4232 1
    4579     5337     5339 1
    4580     7254     7256 1
    4581     8208     8209 1
    4582     9171     9173 1
    4583     6309     6310 1
    4584     7284     7285 1
    4585     2036     2037 1
    4586     3158     3159 1
    4587     4287     4289 1
    4588     3382     3383 1
    4589     2462     2463 1
    4590     9405     9406 1
    4591    10944    10945 1
    4592    10782    10783 1
    4593     8865     8866 1
    4594     5409     5410 1
    4595    11160    11161 1
    4596    11322    11323 1
    4597     2472     2474 1
    4598     3639     3640 1
    4599      463      464 1
    4600      775      776 1
    4601     1909     1910 1
    4602     2088     2089 1
    4603    11415    11416 1
    4604     5664     5665 1
    4605     2807     2808 1
    4606     2084     2085 1
    4607     3395     3396 1
    4608       89       90 1
    4609     4665     4666 1
    4610     6096     6097 1
    4611     7689     7690 1
    4612     7581     7582 1
    4613      198      199 1
    4614    11229    11230 1
    4615     1653     1654 1
    4616     1838     1839 1
    4617      602      604 1
    4618     2154     2156 1
    4619     2433     2431 1
    4620     1738     1739 1
    4621     1158     1159 1
    4622     1155     1156 1
    4623     1085     1086 1
    4624     3802     3803 1
    4625     5946     5947 1
    4626     1480     1481 1
    4627     4779     4781 1
    4628     6696     6698 1
    4629      278      279 1
    4630     1660     1662 1
    4631      228      229 1
    4632     7107     7109 1
    4633    10746    10748 1
    4634     5331     5333 1
    4635     4224     4226 1
    4636     9084     9086 1
    4637     9165     9167 1
    4638     7248     7250 1
    4639     4386     4388 1
    4640     7329     7331 1
    4641      784      783 1
    4642     9246     9248 1
    4643     9003     9005 1
    4644      890      891 1
    4645     1229     1230 1
    4646     7275     7276 1
    4647     5076     5077 1
    4648    10314    10315 1
    4649     4485     4487 1
    4650     5592     5594 1
    4651     1337     1338 1
    4652      403      404 1
    4653    10491    10492 1
    4654     4767     4768 1
    4655      669      670 1
    4656      388      386 1
    4657     2024     2025 1
    4658     2555     2556 1
    4659     2867     2868 1
    4660      210      209 1
    4661     1945     1947 1
    4662     1614     1615 1
    4663     1540     1541 1
    4664     2023     2022 1
    4665      629      630 1
    4666     6969     6971 1
    4667     6213     6215 1
    4668     9210     9212 1
    4669    10047    10049 1
    4670      395      396 1
    4671     7131     7133 1
    4672     5214     5216 1
    4673    11127    11129 1
    4674     1309     1310 1
    4675     1857     1858 1
    4676     1598     1599 1
    4677     1746     1747 1
    4678     1635     1636 1
    4679     1561     1562 1
    4680       60       61 1
    4681     3256     3257 1
    4682     2707     2708 1
    4683     1665     1666 1
    4684     7149     7151 1
    4685     8553     8555 1
    4686    10983    10985 1
    4687     9390     9392 1
    4688     8148     8150 1
    4689     7635     7637 1
    4690     5718     5720 1
    4691     6231     6233 1
    4692     6798     6800 1
    4693     9228     9230 1
    4694      475      474 1
    4695     3333     3334 1
    4696     3800     3801 1
    4697     9690     9692 1
    4698     1895     1896 1
    4699    11100    11101 1
    4700      274      273 1
    4701     4854     4855 1
    4702     2008     2009 1
    4703     1327     1326 1
    4704     1308     1309 1
    4705     1640     1641 1
    4706     1677     1678 1
    4707      805      806 1
    4708      481      482 1
    4709     9141     9143 1
    4710     1932     1934 1
    4711     1992     1995 1
    4712    10962    10963 1
    4713     2368     2369 1
    4714     3185     3186 1
    4715     7977     7978 1
    4716     2593     2594 1
    4717      308      309 1
    4718     7389     7391 1
    4719     1363     1364 1
    4720    10515    10516 1
    4721     3092     3093 1
    4722       83       84 1
    4723     1324     1325 1
    4724     6579     6581 1
    4725     8577     8579 1
    4726    10413    10415 1
    4727     6336     6338 1
    4728     8415     8417 1
    4729     3030     3031 1
    4730     2925     2926 1
    4731     1526     1527 1
    4732     3249     3250 1
    4733     2846     2847 1
    4734     6312     6313 1
    4735     3903     3905 1
    4736     2952     2953 1
    4737     2616     2617 1
    4738     2415     2416 1
    4739     3772     3773 1
    4740     1682     1683 1
    4741     7056     7057 1
    4742      997      998 1
    4743     1452     1453 1
    4744      525      526 1
    4745     1358     1359 1
    4746      886      887 1
    4747      352      353 1
    4748     2783     2784 1
    4749     5892     5894 1
    4750     9375     9377 1
    4751       38       39 1
    4752     3355     3356 1
    4753     7647     7649 1
    4754     7809     7811 1
    4755     1795     1796 1
    4756    10740    10741 1
    4757     6906     6907 1
    4758     2809     2810 1
    4759     4908     4909 1
    4760    10416    10417 1
    4761     6339     6340 1
    4762     8283     8284 1
    4763     5961     5962 1
    4764     6042     6043 1
    4765     9825     9827 1
    4766     3173     3174 1
    4767     5991     5993 1
    4768     7989     7991 1
    4769     9906     9908 1
    4770     9987     9989 1
    4771     1870     1871 1
    4772     1457     1458 1
    4773     1061     1062 1
    4774     3560     3561 1
    4775     1222     1221 1
    4776     1989     1990 1
    4777     2424     2425 1
    4778     6861     6863 1
    4779     3743     3744 1
    4780     1470     1471 1
    4781     3829     3828 1
    4782     2618     2617 1
    4783       76       77 1
    4784     1825     1826 1
    4785     2722     2723 1
    4786     2970     2971 1
    4787     1509     1510 1
    4788     1625     1626 1
    4789     1469     1470 1
    4790      581      582 1
    4791      470      471 1
    4792     1969     1970 1
    4793     1004     1005 1
    4794     1732     1733 1
    4795     1689     1690 1
    4796     2679     2680 1
    4797     2142     2143 1
    4798     3847     3848 1
    4799     3810     3811 1
    4800     3736     3737 1
    4801     1367     1368 1
    4802      414      415 1
    4803      980      982 1
    4804      662      663 1
    4805      332      334 1
    4806     6435     6437 1
    4807     5298     5299 1
    4808     4272     4273 1
    4809    11292    11293 1
    4810     9132     9133 1
    4811    11373    11374 1
    4812     7377     7378 1
    4813     4515     4516 1
    4814     5379     5380 1
    4815     1523     1524 1
    4816    11211    11212 1
    4817     6708     6709 1
    4818     5415     5417 1
    4819      136      137 1
    4820     3148     3149 1
    4821      636      635 1
    4822     1393     1394 1
    4823      921      922 1
    4824     1399     1400 1
    4825    10275    10277 1
    4826      515      516 1
    4827      839      840 1
    4828     6585     6586 1
    4829    10419    10420 1
    4830     8583     8584 1
    4831     3221     3222 1
    4832     6342     6343 1
    4833     8421     8422 1
    4834     2151     2152 1
    4835     4701     4702 1
    4836     2539     2541 1
    4837     1120     1119 1
    4838     9849     9851 1
    4839     8094     8096 1
    4840      606      607 1
    4841     5409     5411 1
    4842     9405     9407 1
    4843    10944    10946 1
    4844    10782    10784 1
    4845     8865     8867 1
    4846    11160    11162 1
    4847     3080     3081 1
    4848    11322    11324 1
    4849     8703     8705 1
    4850     2068     2069 1
    4851     3169     3170 1
    4852       20       21 1
    4853     2158     2159 1
    4854     2893     2894 1
    4855     8628     8630 1
    4856      512      511 1
    4857     4134     4136 1
    4858     3291     3292 1
    4859     6135     6137 1
    4860     1320     1321 1
    4861       88       89 1
    4862    10215    10216 1
    4863     3009     3010 1
    4864     8019     8020 1
    4865     6780     6781 1
    4866    10614    10615 1
    4867     8535     8536 1
    4868    10992    10993 1
    4869     5241     5242 1
    4870     6996     6997 1
    4871     5079     5080 1
    4872    10395    10396 1
    4873     8559     8560 1
    4874     6318     6319 1
    4875     6561     6562 1
    4876     8397     8398 1
    4877     2283     2284 1
    4878      520      499 1
    4879     2111     2112 1
    4880     6174     6176 1
    4881     5430     5432 1
    4882     2293     2294 1
    4883     7371     7373 1
    4884     4347     4349 1
    4885      649      652 1
    4886     1973     1974 1
    4887     1850     1852 1
    4888     7413     7414 1
    4889     3103     3104 1
    4890     3942     3943 1
    4891      221      222 1
    4892     1370     1371 1
    4893     2830     2832 1
    4894     7773     7774 1
    4895     1438     1439 1
    4896     3497     3495 1
    4897     7026     7027 1
    4898     2974     2975 1
    4899     5631     5632 1
    4900     9900     9902 1
    4901      179      177 1
    4902     8679     8681 1
    4903     1472     1473 1
    4904      371      372 1
    4905      482      483 1
    4906      266      267 1
    4907      569      570 1
    4908      146      147 1
    4909    10908    10909 1
    4910     2711     2712 1
    4911     5244     5245 1
    4912     7080     7081 1
    4913    10995    10996 1
    4914     2505     2506 1
    4915     6999     7000 1
    4916     6918     6919 1
    4917     5082     5083 1
    4918     3042     3043 1
    4919     3649     3650 1
    4920     3535     3536 1
    4921     7305     7306 1
    4922     5040     5041 1
    4923     3379     3380 1
    4924     2252     2253 1
    4925      952      931 1
    4926     5544     5546 1
    4927     3729     3730 1
    4928     6483     6485 1
    4929     5262     5264 1
    4930     1648     1649 1
    4931     1408     1409 1
    4932     1700     1701 1
    4933     1725     1726 1
    4934     1799     1800 1
    4935     1651     1652 1
    4936     1577     1578 1
    4937     1611     1612 1
    4938     1537     1538 1
    4939     1586     1587 1
    4940     6576     6577 1
    4941    10410    10411 1
    4942     6036     6037 1
    4943     6333     6334 1
    4944     7872     7873 1
    4945     8574     8575 1
    4946     7953     7954 1
    4947     9870     9871 1
    4948     6117     6118 1
    4949     1863     1864 1
    4950     1715     1716 1
    4951     1789     1790 1
    4952     1752     1753 1
    4953     1303     1304 1
    4954     1276     1277 1
    4955      815      816 1
    4956     2824     2825 1
    4957     3259     3260 1
    4958    10977    10979 1
    4959      231      232 1
    4960     2052     2053 1
    4961     1217     1218 1
    4962     2963     2964 1
    4963    10767    10769 1
    4964     7905     7906 1
    4965     2748     2749 1
    4966     4362     4364 1
    4967     2905     2906 1
    4968     8196     8198 1
    4969    10503    10505 1
    4970      825      827 1
    4971     3650     3651 1
    4972      144      145 1
    4973     2370     2371 1
    4974     3413     3412 1
    4975    11079    11081 1
    4976     6321     6323 1
    4977     3270     3271 1
    4978      786      787 1
    4979     3268     3269 1
    4980     3057     3058 1
    4981    10308    10310 1
    4982     2619     2620 1
    4983     8076     8077 1
    4984     3048     3049 1
    4985      973      976 1
    4986      790      791 1
    4987     1088     1091 1
    4988     2215     2217 1
    4989     3566     3567 1
    4990     4686     4688 1
    4991     6549     6551 1
    4992    10032    10034 1
    4993     6900     6902 1
    4994    10734    10736 1
    4995    11112    11114 1
    4996     6198     6200 1
    4997     7278     7280 1
    4998     7737     7739 1
    4999     2793     2794 1
    5000     4032     4033 1
    5001    11082    11083 1
    5002     3191     3192 1
    5003     3245     3246 1
    5004     7878     7879 1
    5005    11178    11179 1
    5006     7065     7067 1
    5007     5799     5801 1
    5008     9987     9988 1
    5009      500      499 1
    5010     1799     1798 1
    5011     5325     5327 1
    5012     2640     2642 1
    5013     9948     9949 1
    5014     7038     7039 1
    5015     3238     3239 1
    5016      609      611 1
    5017     7488     7490 1
    5018      161      162 1
    5019     9828     9830 1
    5020      251      252 1
    5021     3128     3129 1
    5022      105      106 1
    5023     6408     6410 1
    5024     1424     1425 1
    5025      777      778 1
    5026      944      945 1
    5027     8910     8912 1
    5028     4914     4916 1
    5029    11016    11018 1
    5030     8748     8750 1
    5031     7182     7184 1
    5032     4320     4322 1
    5033     7911     7913 1
    5034     9666     9668 1
    5035    11178    11180 1
    5036     9261     9263 1
    5037    11376    11378 1
    5038     4872     4874 1
    5039     2441     2442 1
    5040     2012     2013 1
    5041     7287     7288 1
    5042     5208     5209 1
    5043     5046     5047 1
    5044     5289     5290 1
    5045     7125     7126 1
    5046    11121    11122 1
    5047     5451     5452 1
    5048    10878    10879 1
    5049     4263     4264 1
    5050     9042     9043 1
    5051     1270     1271 1
    5052     5394     5396 1
    5053     5205     5207 1
    5054     6204     6206 1
    5055    10227    10229 1
    5056     5556     5558 1
    5057     8472     8474 1
    5058    10038    10040 1
    5059    11307    11309 1
    5060     1545     1546 1
    5061     8310     8312 1
    5062      925      926 1
    5063     3327     3328 1
    5064      586      585 1
    5065      598      599 1
    5066     8286     8288 1
    5067     1858     1859 1
    5068     1861     1862 1
    5069     1747     1748 1
    5070     1898     1899 1
    5071     5610     5611 1
    5072     3389     3390 1
    5073     2781     2782 1
    5074     2437     2438 1
    5075     7662     7663 1
    5076     4845     4847 1
    5077      804      805 1
    5078     4131     4133 1
    5079     4059     4061 1
    5080       82       83 1
    5081     3166     3167 1
    5082     2359     2360 1
    5083     2890     2891 1
    5084     2248     2249 1
    5085     2450     2429 1
    5086     7548     7550 1
    5087     5148     5150 1
    5088     2208     2211 1
    5089     2261     2262 1
    5090     4275     4276 1
    5091     3206     3207 1
    5092      351      350 1
    5093     8697     8698 1
    5094     9198     9199 1
    5095     6525     6526 1
    5096     5526     5527 1
    5097     9360     9361 1
    5098     8442     8443 1
    5099     7605     7606 1
    5100    11439    11440 1
    5101    10359    10360 1
    5102     2960     2961 1
    5103      397      398 1
    5104     9351     9353 1
    5105     6660     6662 1
    5106     8334     8336 1
    5107    10332    10334 1
    5108     8496     8498 1
    5109    10575    10577 1
    5110     8739     8741 1
    5111     2811     2812 1
    5112     6498     6500 1
    5113     9039     9040 1
    5114     1395     1396 1
    5115     7284     7286 1
    5116     6948     6949 1
    5117     5868     5869 1
    5118    11457    11458 1
    5119     7785     7786 1
    5120     6624     6625 1
    5121    10809    10810 1
    5122     8892     8893 1
    5123     7974     7975 1
    5124     9891     9892 1
    5125     6813     6814 1
    5126      758      760 1
    5127    10023    10025 1
    5128     8106     8108 1
    5129     6189     6191 1
    5130     4116     4117 1
    5131     3900     3901 1
    5132    11103    11105 1
    5133     7269     7271 1
    5134     4245     4247 1
    5135     5028     5030 1
    5136     9024     9026 1
    5137     3404     3405 1
    5138     2078     2079 1
    5139     1294     1295 1
    5140     3177     3178 1
    5141     1847     1848 1
    5142     1810     1811 1
    5143     2958     2960 1
    5144     1884     1885 1
    5145     9357     9358 1
    5146     2910     2912 1
    5147     4863     4865 1
    5148    11229    11231 1
    5149      835      836 1
    5150     3688     3689 1
    5151     2721     2722 1
    5152      642      643 1
    5153     1340     1339 1
    5154     8130     8131 1
    5155     1261     1262 1
    5156      396      397 1
    5157     8829     8830 1
    5158     1869     1871 1
    5159      660      661 1
    5160     1631     1632 1
    5161      799      800 1
    5162      364      365 1
    5163    10434    10436 1
    5164     7518     7520 1
    5165     9435     9437 1
    5166     9597     9599 1
    5167     4494     4496 1
    5168     5277     5279 1
    5169     6276     6278 1
    5170      475      476 1
    5171     5439     5441 1
    5172    10866    10868 1
    5173     2937     2938 1
    5174     1652     1653 1
    5175     1769     1770 1
    5176     1621     1622 1
    5177     1800     1801 1
    5178     1726     1727 1
    5179     1578     1579 1
    5180     6309     6311 1
    5181     3214     3215 1
    5182     5076     5078 1
    5183     3625     3626 1
    5184     3346     3347 1
    5185    11208    11209 1
    5186     3589     3590 1
    5187     1041     1042 1
    5188     9384     9385 1
    5189     1222     1223 1
    5190      345      346 1
    5191     1433     1432 1
    5192     5382     5384 1
    5193     7098     7099 1
    5194      858      857 1
    5195     3306     3307 1
    5196     2043     2044 1
    5197     1922     1923 1
    5198     1417     1418 1
    5199     2467     2466 1
    5200     9681     9682 1
    5201     4470     4471 1
    5202     7926     7927 1
    5203    11193    11194 1
    5204    11031    11032 1
    5205      950      951 1
    5206     7494     7495 1
    5207      722      723 1
    5208      299      300 1
    5209     6927     6928 1
    5210      827      828 1
    5211      938      939 1
    5212     1344     1345 1
    5213     3691     3692 1
    5214     2917     2919 1
    5215     1589     1590 1
    5216     1887     1888 1
    5217     1410     1411 1
    5218     3686     3687 1
    5219     1008     1009 1
    5220     8742     8743 1
    5221     2005     2006 1
    5222     3909     3910 1
    5223      724      723 1
    5224     4854     4856 1
    5225    11199    11200 1
    5226      183      184 1
    5227     8841     8842 1
    5228     5007     5008 1
    5229     4656     4657 1
    5230     9759     9760 1
    5231     3856     3858 1
    5232     2860     2861 1
    5233    10758    10759 1
    5234     2776     2778 1
    5235     6087     6088 1
    5236     9921     9922 1
    5237     2536     2537 1
    5238     2020     2021 1
    5239     2268     2269 1
    5240     2266     2267 1
    5241     9546     9548 1
    5242     4086     4088 1
    5243     8133     8135 1
    5244     6462     6463 1
    5245     2903     2906 1
    5246    10962    10964 1
    5247     7977     7979 1
    5248     4611     4612 1
    5249      314      315 1
    5250     1321     1322 1
    5251     8988     8989 1
    5252     2595     2596 1
    5253     2928     2929 1
    5254     3039     3040 1
    5255     2394     2395 1
    5256    11226    11227 1
    5257     3051     3052 1
    5258     2769     2770 1
    5259     2520     2521 1
    5260     2940     2941 1
    5261     1060     1039 1
    5262     6312     6314 1
    5263     3216     3217 1
    5264     3627     3628 1
    5265      207      206 1
    5266     2225     2226 1
    5267     2549     2550 1
    5268     8682     8683 1
    5269     3525     3526 1
    5270    10539    10540 1
    5271     2737     2738 1
    5272     4194     4195 1
    5273      571      572 1
    5274      994      995 1
    5275     1071     1072 1
    5276      417      418 1
    5277      528      529 1
    5278      960      961 1
    5279    11193    11195 1
    5280     2877     2878 1
    5281     2115     2116 1
    5282     3358     3359 1
    5283     2976     2977 1
    5284     2865     2866 1
    5285     2664     2665 1
    5286     7962     7964 1
    5287     6045     6047 1
    5288     8151     8153 1
    5289    10068    10070 1
    5290     9879     9881 1
    5291     6234     6236 1
    5292     6072     6074 1
    5293     2634     2636 1
    5294     1556     1557 1
    5295     1630     1631 1
    5296      503      504 1
    5297     9168     9170 1
    5298     5334     5336 1
    5299     4227     4229 1
    5300    11085    11087 1
    5301     4389     4391 1
    5302     9519     9521 1
    5303     7251     7253 1
    5304     5685     5687 1
    5305     4740     4742 1
    5306     7764     7766 1
    5307     9102     9104 1
    5308     9378     9379 1
    5309    10119    10120 1
    5310     9876     9877 1
    5311      591      592 1
    5312      579      580 1
    5313     8913     8915 1
    5314      767      768 1
    5315     1828     1829 1
    5316     2506     2507 1
    5317     2635     2636 1
    5318      701      702 1
    5319     1124     1125 1
    5320     1013     1014 1
    5321     3768     3767 1
    5322     2584     2585 1
    5323      674      675 1
    5324     1238     1239 1
    5325     9117     9118 1
    5326     2682     2683 1
    5327     3006     3007 1
    5328     3159     3160 1
    5329     2670     2671 1
    5330     1947     1948 1
    5331      818      821 1
    5332      425      426 1
    5333     2895     2896 1
    5334     7479     7481 1
    5335      683      684 1
    5336     3131     3132 1
    5337     3630     3631 1
    5338     1431     1432 1
    5339     1448     1449 1
    5340     7749     7751 1
    5341    10044    10046 1
    5342     6210     6212 1
    5343     4725     4727 1
    5344     9504     9506 1
    5345     5670     5672 1
    5346     6048     6050 1
    5347     8127     8129 1
    5348     2564     2565 1
    5349    10095    10096 1
    5350     6708     6710 1
    5351     8370     8371 1
    5352     2761     2762 1
    5353     2623     2624 1
    5354     2197     2198 1
    5355     2410     2411 1
    5356     9447     9448 1
    5357     4506     4507 1
    5358    10446    10447 1
    5359     9609     9610 1
    5360     2334     2335 1
    5361     6612     6613 1
    5362     7368     7369 1
    5363     7530     7531 1
    5364     6450     6451 1
    5365     5613     5614 1
    5366     8889     8891 1
    5367    11091    11093 1
    5368     9174     9176 1
    5369     9012     9014 1
    5370     4233     4235 1
    5371     5340     5342 1
    5372     7257     7259 1
    5373     4395     4397 1
    5374     1713     1714 1
    5375     1676     1677 1
    5376     4788     4790 1
    5377     3083     3084 1
    5378     1084     1085 1
    5379    10863    10864 1
    5380       39       40 1
    5381     4053     4054 1
    5382     5868     5870 1
    5383    11457    11459 1
    5384     6813     6815 1
    5385     9702     9704 1
    5386     6624     6626 1
    5387     6948     6950 1
    5388    10809    10811 1
    5389    11172    11173 1
    5390     9891     9893 1
    5391     7974     7976 1
    5392      358      337 1
    5393     2065     2066 1
    5394     2461     2462 1
    5395     8466     8468 1
    5396     5388     5390 1
    5397      548      549 1
    5398     3081     3082 1
    5399     9885     9886 1
    5400     2424     2427 1
    5401     1075     1076 1
    5402     9456     9457 1
    5403     1618     1619 1
    5404     1544     1545 1
    5405     1877     1878 1
    5406     2055     2056 1
    5407     3733     3734 1
    5408     3659     3660 1
    5409     8019     8021 1
    5410    11235    11236 1
    5411     9318     9319 1
    5412     5808     5809 1
    5413     4809     4810 1
    5414    10398    10399 1
    5415     6564     6565 1
    5416     7887     7888 1
    5417     3897     3898 1
    5418     9642     9643 1
    5419     7725     7726 1
    5420     1328     1329 1
    5421     5616     5617 1
    5422     9801     9802 1
    5423     5967     5968 1
    5424     9774     9775 1
    5425    11529    11530 1
    5426     9612     9613 1
    5427     9963     9964 1
    5428     1227     1228 1
    5429     2189     2190 1
    5430     8898     8900 1
    5431     5355     5356 1
    5432     7677     7678 1
    5433     9918     9919 1
    5434     9756     9757 1
    5435     4572     4573 1
    5436    11268    11269 1
    5437     6084     6085 1
    5438     1973     1972 1
    5439     4653     4654 1
    5440     7434     7435 1
    5441     9702     9703 1
    5442      855      856 1
    5443     1272     1273 1
    5444    10158    10160 1
    5445    10239    10241 1
    5446     6243     6245 1
    5447     8160     8162 1
    5448     9996     9998 1
    5449     6405     6407 1
    5450      310      311 1
    5451     1365     1366 1
    5452     6162     6164 1
    5453     8241     8243 1
    5454     3174     3175 1
    5455      872      875 1
    5456     2809     2811 1
    5457     7665     7666 1
    5458     2802     2804 1
    5459       55       58 1
    5460     1373     1374 1
    5461     2398     2400 1
    5462     2506     2508 1
    5463     1435     1436 1
    5464     9105     9106 1
    5465     6489     6490 1
    5466      633      634 1
    5467      384      385 1
    5468      289      288 1
    5469     1131     1132 1
    5470      768      769 1
    5471     2234     2213 1
    5472     9840     9842 1
    5473     6006     6008 1
    5474    10083    10085 1
    5475     7842     7844 1
    5476     2290     2291 1
    5477     8004     8006 1
    5478     8085     8087 1
    5479     1329     1330 1
    5480     1130     1131 1
    5481     1254     1255 1
    5482     3179     3180 1
    5483    10374    10375 1
    5484     6540     6541 1
    5485    11433    11434 1
    5486     1387     1388 1
    5487      462      461 1
    5488     3239     3240 1
    5489     2384     2385 1
    5490     2381     2382 1
    5491     3844     3845 1
    5492     3622     3623 1
    5493     3579     3580 1
    5494    10908    10910 1
    5495      878      879 1
    5496      306      307 1
    5497      554      555 1
    5498     7863     7864 1
    5499     5109     5110 1
    5500     4947     4948 1
    5501     6864     6865 1
    5502     6108     6109 1
    5503     5784     5785 1
    5504     4902     4903 1
    5505     2280     2281 1
    5506    10698    10699 1
    5507     9573     9574 1
    5508     7281     7282 1
    5509    10302    10303 1
    5510     4050     4051 1
    5511     2975     2976 1
    5512     3581     3582 1
    5513     3378     3377 1
    5514     6294     6296 1
    5515     9129     9131 1
    5516    10290    10292 1
    5517    10452    10454 1
    5518     5295     5297 1
    5519     4350     4352 1
    5520     8373     8375 1
    5521     4512     4514 1
    5522     1906     1907 1
    5523    11370    11372 1
    5524     7179     7180 1
    5525     1072     1073 1
    5526      491      492 1
    5527    10479    10480 1
    5528     4890     4891 1
    5529     4938     4939 1
    5530     1986     1988 1
    5531     2991     2992 1
    5532     5505     5506 1
    5533     9927     9928 1
    5534     1257     1256 1
    5535     2867     2866 1
    5536     7083     7084 1
    5537    10377    10378 1
    5538     4962     4963 1
    5539      699      700 1
    5540    10137    10138 1
    5541    11514    11515 1
    5542    11352    11353 1
    5543     5925     5926 1
    5544     8058     8059 1
    5545     5763     5764 1
    5546     6141     6142 1
    5547     2748     2750 1
    5548     2344     2345 1
    5549      875      876 1
    5550     1311     1312 1
    5551      472      473 1
    5552    10533    10534 1
    5553     6699     6700 1
    5554     1987     1988 1
    5555     2476     2477 1
    5556     1981     1982 1
    5557     3587     3588 1
    5558     2751     2752 1
    5559     8028     8030 1
    5560    10323    10325 1
    5561    11097    11098 1
    5562    10017    10018 1
    5563     8613     8614 1
    5564     3041     3042 1
    5565     4284     4286 1
    5566      317      318 1
    5567     5040     5042 1
    5568     1107     1108 1
    5569     4143     4145 1
    5570     1292     1293 1
    5571     5793     5795 1
    5572       69       71 1
    5573     2952     2951 1
    5574     2949     2950 1
    5575     2546     2547 1
    5576     2339     2340 1
    5577     3088     3089 1
    5578     2228     2229 1
    5579     2435     2436 1
    5580     6684     6685 1
    5581    10638    10639 1
    5582     3909     3911 1
    5583     3353     3354 1
    5584     2979     2980 1
    5585     2109     2110 1
    5586       41       42 1
    5587     3364     3365 1
    5588     3140     3141 1
    5589     6018     6020 1
    5590     7503     7505 1
    5591     4479     4481 1
    5592     8016     8018 1
    5593     4641     4643 1
    5594    11499    11501 1
    5595     5667     5669 1
    5596     5586     5588 1
    5597    10095    10097 1
    5598     7584     7586 1
    5599     4128     4129 1
    5600    11082    11084 1
    5601     5832     5833 1
    5602      414      416 1
    5603     1831     1833 1
    5604    10971    10973 1
    5605      803      804 1
    5606     5700     5702 1
    5607       25       26 1
    5608      665      666 1
    5609     1938     1941 1
    5610     9948     9950 1
    5611     6945     6946 1
    5612     6621     6622 1
    5613     7215     7216 1
    5614     8808     8809 1
    5615     4191     4192 1
    5616     8889     8890 1
    5617     6810     6811 1
    5618     2074     2075 1
    5619     1433     1434 1
    5620     8781     8782 1
    5621    10734    10735 1
    5622      567      568 1
    5623     7830     7832 1
    5624     5643     5645 1
    5625     5994     5996 1
    5626     5562     5564 1
    5627     4536     4538 1
    5628    11394    11396 1
    5629     4455     4457 1
    5630     7992     7994 1
    5631    10071    10073 1
    5632     4617     4619 1
    5633     3590     3592 1
    5634     2330     2331 1
    5635      133      134 1
    5636     9720     9721 1
    5637     2760     2761 1
    5638      865      868 1
    5639     2780     2781 1
    5640      230      229 1
    5641     6810     6812 1
    5642    11283    11284 1
    5643      447      448 1
    5644      163      166 1
    5645     7026     7028 1
    5646     2614     2616 1
    5647     5361     5362 1
    5648     9756     9758 1
    5649     6084     6086 1
    5650     5355     5357 1
    5651     7677     7679 1
    5652     9918     9920 1
    5653     4572     4574 1
    5654    11268    11270 1
    5655     4653     4655 1
    5656     7020     7021 1
    5657     7434     7436 1
    5658     7662     7664 1
    5659     2563     2564 1
    5660      259      260 1
    5661     5469     5471 1
    5662      142      121 1
    5663      881      882 1
    5664     2600     2601 1
    5665     1070     1071 1
    5666     3497     3498 1
    5667     1516     1517 1
    5668     2387     2388 1
    5669     4692     4694 1
    5670      959      960 1
    5671     3551     3552 1
    5672     7563     7564 1
    5673    11397    11398 1
    5674     4539     4540 1
    5675     5268     5269 1
    5676     5646     5647 1
    5677     3105     3106 1
    5678     3089     3090 1
    5679    10857    10858 1
    5680     1343     1344 1
    5681    11439    11441 1
    5682     7605     7607 1
    5683     8442     8444 1
    5684     9198     9200 1
    5685     9360     9362 1
    5686     6525     6527 1
    5687     2502     2503 1
    5688     5526     5528 1
    5689    10359    10361 1
    5690     2834     2835 1
    5691     3202     3203 1
    5692     2771     2772 1
    5693     6819     6821 1
    5694     2360     2361 1
    5695     9039     9041 1
    5696     3843     3844 1
    5697     3687     3688 1
    5698     6678     6679 1
    5699     6840     6841 1
    5700    10593    10594 1
    5701     8514     8515 1
    5702     8595     8596 1
    5703     4053     4055 1
    5704     8676     8677 1
    5705     6759     6760 1
    5706    10512    10513 1
    5707      883      884 1
    5708      321      322 1
    5709      542      544 1
    5710     5487     5489 1
    5711    11073    11074 1
    5712      176      177 1
    5713     3707     3708 1
    5714     7746     7747 1
    5715     1875     1876 1
    5716    11436    11437 1
    5717     9114     9115 1
    5718     3637     3638 1
    5719     3249     3248 1
    5720     8736     8737 1
    5721     1908     1909 1
    5722     2335     2336 1
    5723     6051     6052 1
    5724     3514     3516 1
    5725      802      803 1
    5726     8598     8599 1
    5727     6951     6953 1
    5728     6627     6629 1
    5729     7383     7385 1
    5730    10542    10544 1
    5731     4359     4361 1
    5732     4521     4523 1
    5733     8787     8789 1
    5734     4440     4442 1
    5735    11298    11300 1
    5736     5304     5306 1
    5737     2045     2046 1
    5738     1760     1761 1
    5739      677      678 1
    5740      449      450 1
    5741     1203     1204 1
    5742     1415     1416 1
    5743     1943     1944 1
    5744      616      617 1
    5745     3134     3135 1
    5746     1169     1170 1
    5747    10464    10465 1
    5748     4878     4880 1
    5749     1571     1572 1
    5750     1202     1203 1
    5751      200      198 1
    5752     5160     5162 1
    5753     6915     6917 1
    5754    10371    10373 1
    5755     6537     6539 1
    5756     8616     8618 1
    5757    10911    10913 1
    5758     3478     3479 1
    5759     7077     7079 1
    5760     1829     1830 1
    5761     3472     3473 1
    5762     3546     3547 1
    5763      427      428 1
    5764     9267     9268 1
    5765     1485     1486 1
    5766     2176     2177 1
    5767     5178     5180 1
    5768     6933     6935 1
    5769     5772     5774 1
    5770    11361    11363 1
    5771     5934     5936 1
    5772     7095     7097 1
    5773    11523    11525 1
    5774    10929    10931 1
    5775     3115     3116 1
    5776     2019     2020 1
    5777     3760     3761 1
    5778     1293     1294 1
    5779     3634     3635 1
    5780     2741     2744 1
    5781    10488    10489 1
    5782     8646     8648 1
    5783     2869     2870 1
    5784     8742     8744 1
    5785     7221     7222 1
    5786     8814     8815 1
    5787     4980     4981 1
    5788     6654     6655 1
    5789     4197     4198 1
    5790     8490     8491 1
    5791    10812    10813 1
    5792     8733     8734 1
    5793     7059     7060 1
    5794      936      937 1
    5795     4050     4052 1
    5796    10653    10655 1
    5797     1701     1702 1
    5798     3090     3091 1
    5799     9063     9064 1
    5800     4119     4120 1
    5801      221      220 1
    5802    11406    11407 1
    5803      237      236 1
    5804     8940     8941 1
    5805    11019    11020 1
    5806    10065    10066 1
    5807     7533     7534 1
    5808     4611     4613 1
    5809     3438     3439 1
    5810     3494     3495 1
    5811     3827     3828 1
    5812     3102     3103 1
    5813     3531     3532 1
    5814     8988     8990 1
    5815     1236     1237 1
    5816     3059     3060 1
    5817     2196     2197 1
    5818    11226    11228 1
    5819     2946     2947 1
    5820     2852     2851 1
    5821      744      745 1
    5822     5847     5849 1
    5823     9834     9836 1
    5824     7836     7838 1
    5825    10077    10079 1
    5826     2007     2008 1
    5827     7998     8000 1
    5828     6000     6002 1
    5829     8079     8081 1
    5830     6639     6641 1
    5831     8799     8801 1
    5832     4884     4886 1
    5833     6963     6965 1
    5834    10554    10556 1
    5835     4803     4805 1
    5836     6720     6722 1
    5837     9600     9601 1
    5838     4971     4973 1
    5839        4        5 1
    5840     1744     1745 1
    5841     1781     1782 1
    5842     3918     3919 1
    5843     8817     8819 1
    5844     8439     8441 1
    5845     4200     4202 1
    5846     7224     7226 1
    5847     6603     6605 1
    5848    10356    10358 1
    5849     6522     6524 1
    5850    10437    10439 1
    5851    10896    10898 1
    5852     2586     2589 1
    5853     2694     2697 1
    5854     2111     2110 1
    5855      182      181 1
    5856     4866     4867 1
    5857      795      796 1
    5858     9303     9304 1
    5859    10668    10670 1
    5860     9876     9878 1
    5861    10119    10121 1
    5862      107      108 1
    5863     1391     1392 1
    5864    10098    10100 1
    5865      106      107 1
    5866    10866    10867 1
    5867     2673     2674 1
    5868     2174     2175 1
    5869     6390     6392 1
    5870    10224    10226 1
    5871      314      313 1
    5872     1088     1090 1
    5873     9915     9916 1
    5874    10752    10753 1
    5875     4650     4651 1
    5876     6081     6082 1
    5877     5001     5002 1
    5878     9753     9754 1
    5879     5820     5821 1
    5880     7674     7675 1
    5881        3        4 1
    5882     4839     4840 1
    5883     4713     4714 1
    5884     1219     1220 1
    5885     2186     2187 1
    5886     2408     2409 1
    5887     7587     7589 1
    5888     5508     5510 1
    5889     9180     9182 1
    5890     8424     8426 1
    5891    10341    10343 1
    5892    11421    11423 1
    5893     9342     9344 1
    5894     6507     6509 1
    5895     2069     2070 1
    5896     5895     5897 1
    5897      130      131 1
    5898     3366     3367 1
    5899     4032     4034 1
    5900     3278     3279 1
    5901     2296     2297 1
    5902     3498     3499 1
    5903      215      214 1
    5904     7407     7409 1
    5905     3811     3812 1
    5906     3848     3849 1
    5907     1137     1138 1
    5908     3774     3775 1
    5909     3737     3738 1
    5910     3663     3664 1
    5911      412      413 1
    5912     7230     7232 1
    5913     8823     8825 1
    5914     6609     6611 1
    5915     6528     6530 1
    5916     8445     8447 1
    5917     6825     6827 1
    5918    10443    10445 1
    5919     6888     6889 1
    5920     8904     8906 1
    5921    10902    10904 1
    5922     6099     6100 1
    5923     9060     9061 1
    5924      908      907 1
    5925     4005     4006 1
    5926     3240     3241 1
    5927     6678     6680 1
    5928     6840     6842 1
    5929     8595     8597 1
    5930    10593    10595 1
    5931     8676     8678 1
    5932     8514     8516 1
    5933     6759     6761 1
    5934    10512    10514 1
    5935     3487     3488 1
    5936     2877     2876 1
    5937     1529     1530 1
    5938     9741     9743 1
    5939     5367     5369 1
    5940    11172    11174 1
    5941     2134     2135 1
    5942     3749     3750 1
    5943     1123     1124 1
    5944     3799     3801 1
    5945     2590     2591 1
    5946     4254     4256 1
    5947      440      441 1
    5948     9117     9119 1
    5949     3951     3952 1
    5950    11295    11296 1
    5951     1406     1407 1
    5952     1658     1659 1
    5953     2145     2144 1
    5954     8082     8084 1
    5955     8634     8635 1
    5956     3502     3503 1
    5957     2420     2421 1
    5958     8508     8509 1
    5959     6672     6673 1
    5960     6834     6835 1
    5961     3482     3483 1
    5962     8670     8671 1
    5963    10506    10507 1
    5964     6753     6754 1
    5965    10587    10588 1
    5966     8589     8590 1
    5967    11235    11237 1
    5968      116      118 1
    5969     4071     4073 1
    5970     2123     2124 1
    5971    10005    10006 1
    5972     6252     6253 1
    5973    10323    10324 1
    5974     8109     8110 1
    5975     8487     8488 1
    5976    10566    10567 1
    5977     6273     6274 1
    5978     6651     6652 1
    5979    10026    10027 1
    5980     6192     6193 1
    5981     8325     8326 1
    5982      565      566 1
    5983     1443     1444 1
    5984     9924     9926 1
    5985     1275     1276 1
    5986     1567     1568 1
    5987     1277     1278 1
    5988     3175     3176 1
    5989     8256     8257 1
    5990    10254    10255 1
    5991     6177     6178 1
    5992     8175     8176 1
    5993     6258     6259 1
    5994     2315     2316 1
    5995     6420     6421 1
    5996    10173    10174 1
    5997    10011    10012 1
    5998     7665     7667 1
    5999     3990     3991 1
    6000      329      330 1
    6001     8610     8611 1
    6002      119      120 1
    6003     3948     3950 1
    6004     4020     4022 1
    6005     3570     3569 1
    6006     9222     9223 1
    6007     8142     8143 1
    6008     3635     3636 1
    6009    10179    10181 1
    6010    10785    10787 1
    6011     8868     8870 1
    6012    10947    10949 1
    6013     7950     7952 1
    6014     8706     8708 1
    6015     6033     6035 1
    6016     7140     7141 1
    6017     9867     9869 1
    6018      914      915 1
    6019      269      270 1
    6020     1025     1026 1
    6021     1097     1095 1
    6022     9354     9355 1
    6023      688      689 1
    6024    11433    11435 1
    6025      860      861 1
    6026     2213     2214 1
    6027      393      394 1
    6028     6729     6730 1
    6029     8646     8647 1
    6030     8538     8539 1
    6031     6783     6784 1
    6032     5055     5056 1
    6033    10617    10618 1
    6034    10725    10726 1
    6035     6891     6892 1
    6036    10644    10645 1
    6037    10482    10483 1
    6038     4446     4447 1
    6039     9036     9037 1
    6040     6792     6793 1
    6041      719      720 1
    6042     3501     3502 1
    6043       43       44 1
    6044     2984     2985 1
    6045     2447     2448 1
    6046     1737     1738 1
    6047     8184     8186 1
    6048     1420     1419 1
    6049    10344    10346 1
    6050     6429     6431 1
    6051     6240     6242 1
    6052     8157     8159 1
    6053    10155    10157 1
    6054     8238     8240 1
    6055     8427     8429 1
    6056     6159     6161 1
    6057    10236    10238 1
    6058     1903     1904 1
    6059     7179     7181 1
    6060     9561     9562 1
    6061      493      494 1
    6062      706      707 1
    6063     5055     5057 1
    6064     8892     8894 1
    6065     7197     7198 1
    6066     5739     5740 1
    6067      621      622 1
    6068     4335     4336 1
    6069    11490    11491 1
    6070     2875     2876 1
    6071     4149     4150 1
    6072      690      691 1
    6073     4575     4576 1
    6074     5358     5359 1
    6075     3074     3075 1
    6076      903      904 1
    6077     8274     8275 1
    6078    10191    10192 1
    6079     7437     7438 1
    6080     6357     6358 1
    6081    11271    11272 1
    6082     4413     4414 1
    6083     4962     4964 1
    6084     3423     3424 1
    6085     3458     3459 1
    6086     5901     5903 1
    6087    10869    10871 1
    6088      656      657 1
    6089     7212     7213 1
    6090     3620     3619 1
    6091     1511     1512 1
    6092      896      897 1
    6093     1097     1098 1
    6094      560      561 1
    6095     8964     8966 1
    6096     3003     3002 1
    6097     8553     8554 1
    6098     7902     7903 1
    6099     5823     5824 1
    6100     7740     7741 1
    6101     4716     4717 1
    6102     3003     3004 1
    6103     5904     5905 1
    6104     9576     9577 1
    6105     7821     7822 1
    6106     7281     7283 1
    6107    11115    11117 1
    6108     2262     2263 1
    6109     6534     6536 1
    6110     8613     8615 1
    6111     3201     3200 1
    6112     1340     1341 1
    6113      838      839 1
    6114     8718     8719 1
    6115     4965     4966 1
    6116    11067    11069 1
    6117     3056     3057 1
    6118     3408     3409 1
    6119    11388    11389 1
    6120     3445     3446 1
    6121     3460     3461 1
    6122    10074    10075 1
    6123     1144     1145 1
    6124     3855     3856 1
    6125     3222     3223 1
    6126     7266     7268 1
    6127     9783     9784 1
    6128     2013     2014 1
    6129     2325     2326 1
    6130      445      446 1
    6131     2124     2125 1
    6132     3456     3457 1
    6133       66       67 1
    6134     5019     5021 1
    6135     8853     8855 1
    6136     5370     5372 1
    6137     7692     7694 1
    6138     3025     3027 1
    6139     4425     4427 1
    6140     4857     4859 1
    6141      599      600 1
    6142     4668     4670 1
    6143     7449     7451 1
    6144     2971     2973 1
    6145    10950    10951 1
    6146     4065     4067 1
    6147     1704     1705 1
    6148     4014     4015 1
    6149     9762     9764 1
    6150    11004    11006 1
    6151     5361     5363 1
    6152     4659     4661 1
    6153     4416     4418 1
    6154     6090     6092 1
    6155    11409    11411 1
    6156     4578     4580 1
    6157     5658     5660 1
    6158     7575     7577 1
    6159      374      373 1
    6160     7623     7624 1
    6161    10536    10537 1
    6162     6702     6703 1
    6163     8580     8581 1
    6164     8748     8749 1
    6165    10827    10828 1
    6166      380      382 1
    6167     5832     5834 1
    6168      284      283 1
    6169     2964     2966 1
    6170     1527     1529 1
    6171     1317     1316 1
    6172     1720     1721 1
    6173     4281     4282 1
    6174    11301    11302 1
    6175      438      439 1
    6176     1442     1443 1
    6177    10449    10451 1
    6178     7641     7643 1
    6179     5886     5888 1
    6180    10287    10289 1
    6181     9720     9722 1
    6182     6291     6293 1
    6183     8208     8210 1
    6184     7803     7805 1
    6185     8370     8372 1
    6186     9558     9560 1
    6187     2413     2414 1
    6188      433      436 1
    6189     1093     1094 1
    6190     1893     1894 1
    6191     6096     6098 1
    6192     5664     5666 1
    6193    11415    11417 1
    6194     4665     4667 1
    6195     7689     7691 1
    6196     8688     8689 1
    6197     7581     7583 1
    6198     4557     4559 1
    6199     9930     9932 1
    6200     9768     9770 1
    6201    10815    10816 1
    6202      277      278 1
    6203     3864     3865 1
    6204     3563     3564 1
    6205     3714     3715 1
    6206     1287     1288 1
    6207    11283    11285 1
    6208     7527     7528 1
    6209     1700     1698 1
    6210     8730     8732 1
    6211     8109     8111 1
    6212    10566    10568 1
    6213     6273     6275 1
    6214     6651     6653 1
    6215    10026    10028 1
    6216     6192     6194 1
    6217     9579     9580 1
    6218     8325     8327 1
    6219     6489     6491 1
    6220    11334    11335 1
    6221      278      280 1
    6222     2455     2456 1
    6223     2035     2036 1
    6224     2062     2063 1
    6225     2566     2567 1
    6226      104      105 1
    6227     9465     9467 1
    6228      788      789 1
    6229     5706     5708 1
    6230     9792     9793 1
    6231    10170    10171 1
    6232     2139     2140 1
    6233     8253     8254 1
    6234     5634     5635 1
    6235    10008    10009 1
    6236     6174     6175 1
    6237     2714     2715 1
    6238     9630     9631 1
    6239     8034     8035 1
    6240     6618     6619 1
    6241     6942     6943 1
    6242    10803    10804 1
    6243     3716     3717 1
    6244     7779     7780 1
    6245     3945     3946 1
    6246     3605     3606 1
    6247     5862     5863 1
    6248     8181     8182 1
    6249     8532     8533 1
    6250    10854    10855 1
    6251     5265     5266 1
    6252    10611    10612 1
    6253     9531     9532 1
    6254     7452     7453 1
    6255     1430     1431 1
    6256     9369     9370 1
    6257     7614     7615 1
    6258     8199     8200 1
    6259     2768     2769 1
    6260     2639     2640 1
    6261     2840     2841 1
    6262     2519     2520 1
    6263     5394     5395 1
    6264     7122     7123 1
    6265     6441     6443 1
    6266     2348     2349 1
    6267     5043     5045 1
    6268      213      212 1
    6269     9162     9163 1
    6270     5328     5329 1
    6271     4221     4222 1
    6272     9432     9433 1
    6273     4383     4384 1
    6274     7245     7246 1
    6275     7515     7516 1
    6276     5598     5599 1
    6277     7353     7354 1
    6278     9594     9595 1
    6279     4005     4007 1
    6280     5091     5093 1
    6281     1500     1501 1
    6282     2091     2092 1
    6283    11391    11392 1
    6284     7980     7981 1
    6285     7746     7748 1
    6286    10530    10531 1
    6287     3710     3711 1
    6288     3407     3408 1
    6289     4557     4558 1
    6290     9930     9931 1
    6291     3924     3926 1
    6292     3972     3974 1
    6293      390      391 1
    6294     3071     3072 1
    6295      948      949 1
    6296      402      403 1
    6297     6063     6064 1
    6298     5835     5837 1
    6299     8598     8600 1
    6300     5142     5144 1
    6301     3176     3177 1
    6302     1992     1994 1
    6303     7113     7114 1
    6304    11403    11405 1
    6305     8541     8543 1
    6306     9954     9956 1
    6307     2204     2205 1
    6308     3666     3668 1
    6309      872      874 1
    6310      613      614 1
    6311     4350     4351 1
    6312     5064     5065 1
    6313     7467     7468 1
    6314      654      655 1
    6315     3205     3206 1
    6316    11247    11249 1
    6317     2243     2244 1
    6318     4707     4709 1
    6319     3624     3625 1
    6320     3661     3662 1
    6321     7170     7171 1
    6322     1851     1852 1
    6323     1762     1763 1
    6324     1617     1618 1
    6325     1876     1877 1
    6326     3838     3839 1
    6327     1543     1544 1
    6328     1688     1689 1
    6329     1580     1581 1
    6330      389      390 1
    6331    10479    10481 1
    6332     8562     8564 1
    6333     7644     7646 1
    6334     5403     5405 1
    6335     9723     9725 1
    6336    10641    10643 1
    6337     4137     4139 1
    6338    11316    11318 1
    6339     7806     7808 1
    6340     5052     5054 1
    6341     1282     1283 1
    6342     3873     3875 1
    6343     3014     3011 1
    6344     2284     2285 1
    6345     2392     2393 1
    6346     2815     2816 1
    6347     2704     2705 1
    6348     8661     8663 1
    6349     4827     4829 1
    6350     8580     8582 1
    6351     7959     7961 1
    6352    10740    10742 1
    6353     6906     6908 1
    6354    10416    10418 1
    6355     8283     8285 1
    6356     6366     6368 1
    6357     7878     7880 1
    6358     9285     9286 1
    6359      879      880 1
    6360     4344     4345 1
    6361     1553     1554 1
    6362     8544     8545 1
    6363    10488    10490 1
    6364     7089     7090 1
    6365    10923    10924 1
    6366       49       48 1
    6367      266      265 1
    6368     5193     5194 1
    6369    11505    11506 1
    6370      693      694 1
    6371     6384     6385 1
    6372     7788     7789 1
    6373     5871     5872 1
    6374    10218    10219 1
    6375     8463     8464 1
    6376    11460    11461 1
    6377     8301     8302 1
    6378     9705     9706 1
    6379     2747     2748 1
    6380     3345     3346 1
    6381     2700     2701 1
    6382     1250     1251 1
    6383     3069     3070 1
    6384     9951     9953 1
    6385     5676     5678 1
    6386     2203     2204 1
    6387     6750     6751 1
    6388     3397     3398 1
    6389      893      894 1
    6390     5211     5213 1
    6391    11406    11408 1
    6392     9522     9523 1
    6393     8604     8605 1
    6394    10521    10522 1
    6395     5454     5455 1
    6396     6687     6688 1
    6397     7767     7768 1
    6398     6849     6850 1
    6399     5688     5689 1
    6400     2051     2052 1
    6401     4743     4744 1
    6402    10065    10067 1
    6403     3517     3518 1
    6404     7533     7535 1
    6405     8832     8833 1
    6406     2718     2719 1
    6407     2922     2923 1
    6408     2919     2920 1
    6409     2757     2758 1
    6410     2508     2509 1
    6411     9534     9535 1
    6412     2844     2845 1
    6413     2307     2308 1
    6414     4149     4151 1
    6415      343      344 1
    6416     1105     1106 1
    6417     3413     3414 1
    6418     2786     2787 1
    6419     9861     9863 1
    6420     8700     8702 1
    6421    10941    10943 1
    6422      877      878 1
    6423     8862     8864 1
    6424      553      554 1
    6425     7944     7946 1
    6426     2269     2270 1
    6427     6852     6853 1
    6428     8526     8527 1
    6429     6690     6691 1
    6430     6771     6772 1
    6431     8607     8608 1
    6432     1662     1663 1
    6433    10092    10093 1
    6434     7851     7852 1
    6435     8583     8585 1
    6436     6585     6587 1
    6437    10419    10421 1
    6438     6342     6344 1
    6439      764      767 1
    6440     8421     8423 1
    6441     8394     8395 1
    6442     8778     8780 1
    6443     6909     6911 1
    6444     7839     7840 1
    6445     4680     4681 1
    6446      150      151 1
    6447     3234     3235 1
    6448      156      157 1
    6449     7959     7960 1
    6450      798      799 1
    6451     9063     9065 1
    6452     3969     3971 1
    6453    10830    10832 1
    6454     2018     1997 1
    6455     3588     3589 1
    6456     1173     1174 1
    6457     1179     1180 1
    6458     2214     2215 1
    6459     3633     3634 1
    6460     9906     9907 1
    6461     2417     2420 1
    6462      182      183 1
    6463     1463     1464 1
    6464     7833     7835 1
    6465     4494     4495 1
    6466     5601     5602 1
    6467     7110     7112 1
    6468     8622     8624 1
    6469     2352     2353 1
    6470     2676     2677 1
    6471      431      432 1
    6472     2990     2991 1
    6473     2342     2343 1
    6474     3465     3466 1
    6475      791      792 1
    6476     3516     3517 1
    6477     6486     6487 1
    6478    10320    10321 1
    6479     6648     6649 1
    6480     8484     8485 1
    6481     8727     8728 1
    6482     2397     2398 1
    6483    10563    10564 1
    6484     8322     8323 1
    6485     1216     1217 1
    6486      240      241 1
    6487     6627     6628 1
    6488     6318     6320 1
    6489     6561     6563 1
    6490    10395    10397 1
    6491     8559     8561 1
    6492     8397     8399 1
    6493    10647    10649 1
    6494     8379     8381 1
    6495     2333     2334 1
    6496     9558     9559 1
    6497    10287    10288 1
    6498     6453     6454 1
    6499     4128     4130 1
    6500     2364     2366 1
    6501     2953     2954 1
    6502     8088     8090 1
    6503      398      399 1
    6504      179      180 1
    6505      509      510 1
    6506     6261     6262 1
    6507     5883     5884 1
    6508     8178     8179 1
    6509     3119     3120 1
    6510      132      133 1
    6511     7800     7801 1
    6512      250      251 1
    6513    10257    10258 1
    6514    11472    11473 1
    6515     3224     3225 1
    6516     9480     9481 1
    6517     7692     7693 1
    6518     6099     6101 1
    6519     4977     4979 1
    6520     3039     3038 1
    6521     3073     3072 1
    6522     3144     3145 1
    6523     4077     4078 1
    6524     9162     9164 1
    6525     7245     7247 1
    6526     4383     4385 1
    6527     4221     4223 1
    6528     5598     5600 1
    6529     9432     9434 1
    6530     9000     9002 1
    6531     9594     9596 1
    6532     4491     4493 1
    6533     7515     7517 1
    6534     1552     1551 1
    6535     4821     4823 1
    6536     9048     9049 1
    6537     2791     2792 1
    6538     4095     4096 1
    6539     3016     3017 1
    6540     1295     1296 1
    6541     7428     7429 1
    6542      717      719 1
    6543     8634     8636 1
    6544     3652     3653 1
    6545       62       65 1
    6546     8859     8860 1
    6547    10776    10777 1
    6548     3921     3922 1
    6549      949      950 1
    6550     4566     4567 1
    6551     5349     5350 1
    6552    10938    10939 1
    6553    11262    11263 1
    6554     4212     4213 1
    6555     9234     9235 1
    6556     5319     5320 1
    6557     4374     4375 1
    6558     7236     7237 1
    6559     9072     9073 1
    6560     9153     9154 1
    6561     7155     7156 1
    6562     7317     7318 1
    6563     4293     4294 1
    6564     6756     6757 1
    6565     3692     3693 1
    6566     2114     2115 1
    6567     2438     2439 1
    6568     2327     2328 1
    6569    11205    11206 1
    6570     2482     2481 1
    6571    10170    10172 1
    6572     2626     2627 1
    6573      460      461 1
    6574     3297     3298 1
    6575      278      281 1
    6576     3996     3997 1
    6577     7608     7609 1
    6578     9201     9202 1
    6579     5529     5530 1
    6580     3025     3026 1
    6581     7986     7987 1
    6582     9903     9904 1
    6583    11442    11443 1
    6584     9363     9364 1
    6585     4452     4453 1
    6586     2647     2649 1
    6587     3966     3967 1
    6588      437      438 1
    6589     8925     8926 1
    6590      201      202 1
    6591     1274     1275 1
    6592      790      769 1
    6593      267      268 1
    6594     4401     4402 1
    6595      444      445 1
    6596     3493     3494 1
    6597     3755     3756 1
    6598     3530     3531 1
    6599     3325     3326 1
    6600     2862     2863 1
    6601      296      295 1
    6602     2633     2636 1
    6603     3067     3068 1
    6604      692      693 1
    6605      501      503 1
    6606     3776     3777 1
    6607     3739     3740 1
    6608     3665     3666 1
    6609     1403     1404 1
    6610     2613     2614 1
    6611     6216     6217 1
    6612     9510     9511 1
    6613     7755     7756 1
    6614      177      178 1
    6615     4731     4732 1
    6616     5676     5677 1
    6617     6054     6055 1
    6618    10050    10051 1
    6619     8133     8134 1
    6620     4098     4099 1
    6621     6846     6847 1
    6622     5025     5027 1
    6623     4458     4460 1
    6624     3441     3442 1
    6625     7482     7484 1
    6626     8520     8521 1
    6627    10599    10600 1
    6628     8601     8602 1
    6629     5727     5729 1
    6630     1783     1784 1
    6631     1564     1565 1
    6632     1638     1639 1
    6633      898      899 1
    6634     1709     1710 1
    6635     1860     1861 1
    6636     1894     1895 1
    6637     1672     1673 1
    6638     1897     1898 1
    6639     1601     1602 1
    6640     2713     2714 1
    6641     2491     2492 1
    6642     2602     2603 1
    6643      943      944 1
    6644     1801     1802 1
    6645     1727     1728 1
    6646     1964     1943 1
    6647     8136     8137 1
    6648     1830     1831 1
    6649     5142     5143 1
    6650      468      469 1
    6651     8958     8959 1
    6652     9408     9409 1
    6653    11244    11245 1
    6654     7410     7411 1
    6655     9489     9490 1
    6656     9327     9328 1
    6657    11163    11164 1
    6658     5412     5413 1
    6659    11325    11326 1
    6660     5493     5494 1
    6661     7374     7376 1
    6662     6306     6308 1
    6663      673      672 1
    6664     3305     3306 1
    6665     4596     4597 1
    6666     3241     3242 1
    6667     5574     5576 1
    6668     7551     7552 1
    6669     7713     7714 1
    6670     5472     5473 1
    6671     4239     4240 1
    6672     9468     9469 1
    6673     3156     3157 1
    6674     4689     4690 1
    6675     3725     3726 1
    6676     3029     3030 1
    6677     9036     9038 1
    6678     1366     1367 1
    6679     4446     4448 1
    6680     4716     4718 1
    6681     7821     7823 1
    6682     5904     5906 1
    6683     9738     9740 1
    6684     7902     7904 1
    6685     5823     5825 1
    6686     9576     9578 1
    6687     7659     7661 1
    6688     7740     7742 1
    6689     9657     9659 1
    6690      351      352 1
    6691     6474     6475 1
    6692     1289     1290 1
    6693     2292     2293 1
    6694      489      490 1
    6695      387      386 1
    6696     1757     1758 1
    6697     3450     3451 1
    6698     5208     5210 1
    6699     5289     5291 1
    6700     7287     7289 1
    6701     5046     5048 1
    6702    11121    11123 1
    6703    10878    10880 1
    6704     5451     5453 1
    6705     7125     7127 1
    6706     4263     4265 1
    6707     9042     9044 1
    6708      967      968 1
    6709     1764     1765 1
    6710     3452     3453 1
    6711     1784     1785 1
    6712     1710     1711 1
    6713     5709     5710 1
    6714     7458     7460 1
    6715     7653     7655 1
    6716     2532     2533 1
    6717      848      846 1
    6718     3574     3575 1
    6719     8358     8359 1
    6720     1513     1514 1
    6721     3786     3787 1
    6722     3601     3602 1
    6723     3798     3799 1
    6724     3835     3836 1
    6725     4614     4616 1
    6726      644      645 1
    6727    10827    10829 1
    6728     1323     1324 1
    6729      809      810 1
    6730     3126     3127 1
    6731       19       20 1
    6732     2208     2210 1
    6733     1012     1013 1
    6734      243      242 1
    6735     4536     4537 1
    6736     5994     5995 1
    6737     6111     6112 1
    6738     8406     8407 1
    6739      123      124 1
    6740     3313     3314 1
    6741      301      302 1
    6742    10428    10429 1
    6743     4488     4489 1
    6744     5595     5596 1
    6745     9591     9592 1
    6746     9429     9430 1
    6747      121      122 1
    6748     6594     6595 1
    6749     7512     7513 1
    6750     7350     7351 1
    6751     6432     6433 1
    6752     2175     2176 1
    6753     1183     1184 1
    6754    11217    11218 1
    6755     5748     5749 1
    6756     2879     2880 1
    6757     3809     3810 1
    6758     3151     3152 1
    6759     3698     3699 1
    6760     4740     4741 1
    6761     1390     1391 1
    6762     2321     2320 1
    6763     5703     5705 1
    6764     7029     7031 1
    6765     3289     3290 1
    6766     7395     7396 1
    6767     4371     4372 1
    6768     9150     9151 1
    6769     5316     5317 1
    6770     7827     7828 1
    6771     9744     9745 1
    6772     7908     7909 1
    6773     4533     4534 1
    6774     4722     4723 1
    6775     5829     5830 1
    6776     1459     1460 1
    6777     5484     5485 1
    6778      190      189 1
    6779      922      923 1
    6780    10770    10772 1
    6781     5517     5519 1
    6782      274      271 1
    6783     5658     5659 1
    6784      282      281 1
    6785     4551     4552 1
    6786     1385     1386 1
    6787     3718     3717 1
    6788     3681     3680 1
    6789      471      472 1
    6790     3607     3606 1
    6791     3104     3105 1
    6792    11334    11336 1
    6793     7710     7712 1
    6794      734      733 1
    6795     4158     4160 1
    6796     3894     3896 1
    6797     1232     1233 1
    6798     8328     8329 1
    6799     4932     4933 1
    6800    10683    10684 1
    6801    10845    10846 1
    6802     8766     8767 1
    6803     7929     7930 1
    6804     8928     8929 1
    6805     9684     9685 1
    6806      743      744 1
    6807      419      420 1
    6808     5850     5851 1
    6809     3699     3700 1
    6810     2429     2430 1
    6811     7914     7915 1
    6812     7671     7672 1
    6813     6078     6079 1
    6814     4647     4648 1
    6815     9669     9670 1
    6816     9750     9751 1
    6817     4089     4090 1
    6818     9912     9913 1
    6819     5292     5293 1
    6820     9630     9632 1
    6821     5634     5636 1
    6822    11367    11368 1
    6823     9792     9794 1
    6824     9126     9127 1
    6825     8253     8255 1
    6826     3246     3247 1
    6827     4428     4429 1
    6828     4266     4267 1
    6829    10008    10010 1
    6830    10227    10228 1
    6831     7122     7124 1
    6832    10167    10168 1
    6833     2020     2022 1
    6834     4077     4079 1
    6835      235      236 1
    6836     2890     2889 1
    6837     2578     2577 1
    6838      787      788 1
    6839     7404     7406 1
    6840     9717     9718 1
    6841    10671    10673 1
    6842     4920     4922 1
    6843     7917     7919 1
    6844     9672     9674 1
    6845     8754     8756 1
    6846     8916     8918 1
    6847    10833    10835 1
    6848     8337     8338 1
    6849    10686    10687 1
    6850     8769     8770 1
    6851     6663     6664 1
    6852    10578    10579 1
    6853     5016     5017 1
    6854     8499     8500 1
    6855    10335    10336 1
    6856    10848    10849 1
    6857     8931     8932 1
    6858     2087     2088 1
    6859    11391    11393 1
    6860    10821    10822 1
    6861     3287     3288 1
    6862     2100     2101 1
    6863     2116     2117 1
    6864     2440     2441 1
    6865       51       52 1
    6866    10530    10532 1
    6867     3331     3330 1
    6868     1258     1259 1
    6869      372      373 1
    6870     3086     3087 1
    6871     9627     9628 1
    6872     1092     1093 1
    6873     3331     3332 1
    6874     3672     3673 1
    6875      589      590 1
    6876     1126     1127 1
    6877     5007     5009 1
    6878     4656     4658 1
    6879     9759     9761 1
    6880     8841     8843 1
    6881     6087     6089 1
    6882     9921     9923 1
    6883     7680     7682 1
    6884       57       58 1
    6885      401      400 1
    6886    10758    10760 1
    6887     2755     2756 1
    6888      998      999 1
    6889      752      753 1
    6890     3779     3778 1
    6891     3500     3501 1
    6892     8199     8201 1
    6893     3586     3587 1
    6894      102      103 1
    6895      547      548 1
    6896     9144     9145 1
    6897     7818     7819 1
    6898     2249     2250 1
    6899     1925     1926 1
    6900     6474     6476 1
    6901     7752     7754 1
    6902    11343    11345 1
    6903     5916     5918 1
    6904     9507     9509 1
    6905      728      729 1
    6906     8157     8158 1
    6907     5673     5675 1
    6908     4728     4730 1
    6909     1743     1744 1
    6910    11505    11507 1
    6911      617      618 1
    6912     1632     1633 1
    6913     1780     1781 1
    6914     2170     2171 1
    6915     2920     2921 1
    6916     1576     1577 1
    6917     1650     1651 1
    6918     5955     5956 1
    6919     1290     1291 1
    6920     4344     4346 1
    6921     1040     1041 1
    6922     1270     1269 1
    6923     8829     8831 1
    6924     2868     2869 1
    6925     2002     2003 1
    6926     3368     3369 1
    6927     5502     5503 1
    6928      920      922 1
    6929     8211     8213 1
    6930     9999    10000 1
    6931     4098     4100 1
    6932     2374     2375 1
    6933     3013     3014 1
    6934     3927     3928 1
    6935     3436     3435 1
    6936     2147     2150 1
    6937     9894     9895 1
    6938     6750     6752 1
    6939     1686     1687 1
    6940     1723     1724 1
    6941     8487     8489 1
    6942     9450     9451 1
    6943     5454     5456 1
    6944       71       72 1
    6945     6849     6851 1
    6946     6687     6689 1
    6947     7767     7769 1
    6948     8604     8606 1
    6949     4743     4745 1
    6950     9522     9524 1
    6951     3252     3253 1
    6952     5688     5690 1
    6953     1775     1776 1
    6954    10521    10523 1
    6955      342      343 1
    6956     2510     2511 1
    6957     2759     2760 1
    6958     2295     2294 1
    6959     3274     3275 1
    6960    11478    11480 1
    6961     7104     7106 1
    6962     2725     2726 1
    6963      349      350 1
    6964     1074     1075 1
    6965      963      964 1
    6966      985      986 1
    6967     8715     8716 1
    6968     9417     9418 1
    6969     4422     4423 1
    6970     7446     7447 1
    6971     4584     4585 1
    6972     8877     8878 1
    6973     9741     9742 1
    6974     5367     5368 1
    6975    10794    10795 1
    6976     5613     5615 1
    6977     9447     9449 1
    6978     7530     7532 1
    6979    10446    10448 1
    6980     2485     2487 1
    6981     1076     1077 1
    6982     6612     6614 1
    6983     7368     7370 1
    6984     9609     9611 1
    6985     6450     6452 1
    6986     1999     2001 1
    6987     1349     1350 1
    6988     7050     7052 1
    6989    10884    10886 1
    6990     1776     1777 1
    6991     7620     7622 1
    6992     2316     2317 1
    6993    10497    10498 1
    6994     6582     6583 1
    6995     1125     1126 1
    6996     1050     1051 1
    6997     4875     4876 1
    6998    11463    11464 1
    6999     3641     3642 1
    7000     3604     3605 1
    7001    11430    11431 1
    7002     3066     3067 1
    7003      290      289 1
    7004      494      495 1
    7005      710      711 1
    7006     1758     1759 1
    7007     2471     2474 1
    7008     2424     2426 1
    7009    10518    10520 1
    7010      152      153 1
    7011     2748     2751 1
    7012     3230     3231 1
    7013     5601     5603 1
    7014     2886     2887 1
    7015     2460     2461 1
    7016     2685     2686 1
    7017     3162     3163 1
    7018     1950     1951 1
    7019      986      987 1
    7020      517      518 1
    7021      841      842 1
    7022      738      739 1
    7023     3780     3782 1
    7024      505      506 1
    7025     3858     3859 1
    7026     8295     8296 1
    7027     8457     8458 1
    7028     6378     6379 1
    7029     2829     2830 1
    7030    10212    10213 1
    7031      999     1000 1
    7032     1451     1452 1
    7033      453      454 1
    7034     9801     9803 1
    7035     5616     5618 1
    7036     5967     5969 1
    7037     9774     9776 1
    7038     9438     9440 1
    7039    11529    11531 1
    7040     4497     4499 1
    7041     9612     9614 1
    7042     2888     2889 1
    7043     9963     9965 1
    7044     3709     3710 1
    7045     1181     1182 1
    7046     6453     6455 1
    7047     1199     1198 1
    7048     4824     4825 1
    7049     3096     3095 1
    7050    10779    10781 1
    7051     9528     9529 1
    7052     6693     6694 1
    7053     6855     6856 1
    7054     3768     3769 1
    7055     3805     3806 1
    7056     3694     3695 1
    7057     3620     3621 1
    7058      322      323 1
    7059      748      749 1
    7060     3402     3403 1
    7061     3657     3658 1
    7062      859      860 1
    7063     1977     1978 1
    7064     1114     1115 1
    7065     3805     3804 1
    7066     7056     7058 1
    7067    10263    10265 1
    7068      976      977 1
    7069     2467     2468 1
    7070     3381     3382 1
    7071     8304     8306 1
    7072    10383    10385 1
    7073     4881     4883 1
    7074     4047     4048 1
    7075     3592     3593 1
    7076     9936     9937 1
    7077     3568     3569 1
    7078     3787     3788 1
    7079     3824     3825 1
    7080     3602     3603 1
    7081     3320     3321 1
    7082     7938     7939 1
    7083    10773    10774 1
    7084     8694     8695 1
    7085     8856     8857 1
    7086     6021     6022 1
    7087     9855     9856 1
    7088    10935    10936 1
    7089    11130    11131 1
    7090      111      112 1
    7091     1156     1157 1
    7092     3470     3471 1
    7093     3732     3733 1
    7094     5253     5255 1
    7095     8796     8797 1
    7096     5637     5638 1
    7097     9795     9796 1
    7098    10551    10552 1
    7099     4800     4801 1
    7100     9633     9634 1
    7101     6717     6718 1
    7102     3690     3691 1
    7103     4452     4454 1
    7104     6447     6448 1
    7105     4989     4990 1
    7106     8445     8446 1
    7107    10020    10021 1
    7108     2722     2724 1
    7109     2333     2332 1
    7110     2548     2549 1
    7111     1530     1531 1
    7112    10059    10060 1
    7113    11139    11140 1
    7114     3322     3323 1
    7115     3490     3491 1
    7116     2265     2266 1
    7117     7983     7985 1
    7118     1868     1869 1
    7119     1302     1303 1
    7120     4401     4403 1
    7121    11514    11516 1
    7122     5925     5927 1
    7123    11352    11354 1
    7124     8058     8060 1
    7125    10137    10139 1
    7126     5763     5765 1
    7127     6141     6143 1
    7128     1121     1122 1
    7129     2692     2693 1
    7130     7074     7075 1
    7131     3251     3252 1
    7132     1187     1188 1
    7133      851      852 1
    7134      539      540 1
    7135     2708     2709 1
    7136     3857     3858 1
    7137    11022    11023 1
    7138     4164     4165 1
    7139     7188     7189 1
    7140     4326     4327 1
    7141    10104    10105 1
    7142     7119     7120 1
    7143     2823     2824 1
    7144     3258     3259 1
    7145     2172     2173 1
    7146     2487     2488 1
    7147     3033     3034 1
    7148     2814     2815 1
    7149      996      997 1
    7150      870      871 1
    7151    10215    10217 1
    7152     7017     7018 1
    7153     3309     3310 1
    7154     6714     6716 1
    7155     1811     1812 1
    7156     1885     1886 1
    7157     1848     1849 1
    7158      713      714 1
    7159     1614     1613 1
    7160     9657     9658 1
    7161     7521     7522 1
    7162     5970     5972 1
    7163    11532    11534 1
    7164     9804     9806 1
    7165    10533    10535 1
    7166     5604     5605 1
    7167     8871     8872 1
    7168    11328    11329 1
    7169     9411     9412 1
    7170     5619     5621 1
    7171     7212     7214 1
    7172     3700     3701 1
    7173     1552     1553 1
    7174     3626     3627 1
    7175    10266    10267 1
    7176     2383     2384 1
    7177     2923     2924 1
    7178     3034     3035 1
    7179     1297     1298 1
    7180     1881     1882 1
    7181     1770     1771 1
    7182     2202     2204 1
    7183      339      340 1
    7184      385      386 1
    7185     1921     1922 1
    7186     2451     2452 1
    7187     2883     2884 1
    7188     1491     1492 1
    7189     7206     7208 1
    7190      500      501 1
    7191     2394     2393 1
    7192     2014     2015 1
    7193     8337     8339 1
    7194     2701     2702 1
    7195     5466     5467 1
    7196     7734     7735 1
    7197     9462     9463 1
    7198     4710     4711 1
    7199      291      292 1
    7200     7545     7546 1
    7201     4683     4684 1
    7202     7896     7897 1
    7203     5817     5818 1
    7204     9651     9652 1
    7205      507      508 1
    7206     8958     8960 1
    7207     2053     2054 1
    7208     1557     1558 1
    7209     1594     1595 1
    7210     3585     3586 1
    7211    11220    11222 1
    7212     2257     2258 1
    7213      598      596 1
    7214     1046     1045 1
    7215     2525     2528 1
    7216     2908     2909 1
    7217     1695     1696 1
    7218     1917     1918 1
    7219     2366     2367 1
    7220     2321     2322 1
    7221     9123     9124 1
    7222     9468     9470 1
    7223     4689     4691 1
    7224     5472     5474 1
    7225     7551     7553 1
    7226     7713     7715 1
    7227      882      883 1
    7228     2955     2956 1
    7229     2832     2833 1
    7230     3054     3055 1
    7231     2631     2632 1
    7232     3265     3266 1
    7233     2943     2944 1
    7234     2940     2938 1
    7235     1138     1139 1
    7236     3812     3813 1
    7237     3738     3739 1
    7238       90       92 1
    7239     3775     3776 1
    7240     6465     6467 1
    7241     3664     3665 1
    7242     1796     1797 1
    7243     2118     2119 1
    7244     2655     2656 1
    7245     2112     2113 1
    7246     2337     2338 1
    7247     1971     1972 1
    7248     2340     2341 1
    7249     2448     2449 1
    7250     2649     2650 1
    7251     2229     2230 1
    7252      224      227 1
    7253     5778     5780 1
    7254      167      168 1
    7255     9966     9968 1
    7256    10500    10502 1
    7257     5709     5711 1
    7258     2478     2481 1
    7259     3018     3021 1
    7260     5106     5108 1
    7261      498      499 1
    7262    10806    10807 1
    7263     4785     4786 1
    7264    10200    10201 1
    7265      264      265 1
    7266     1603     1605 1
    7267       80       81 1
    7268      437      436 1
    7269     1447     1448 1
    7270     3338     3339 1
    7271     2745     2746 1
    7272     5121     5122 1
    7273     4464     4466 1
    7274     3816     3815 1
    7275      971      972 1
    7276     1007     1008 1
    7277     1115     1116 1
    7278      764      766 1
    7279       59       58 1
    7280    11217    11219 1
    7281     1007     1006 1
    7282     3547     3548 1
    7283     5748     5750 1
    7284     2764     2765 1
    7285     6027     6029 1
    7286     1049     1050 1
    7287      506      507 1
    7288     6207     6208 1
    7289    10041    10042 1
    7290     8124     8125 1
    7291     4695     4696 1
    7292     9474     9475 1
    7293     5478     5479 1
    7294     7719     7720 1
    7295     7557     7558 1
    7296      628      607 1
    7297     8643     8644 1
    7298      494      496 1
    7299      710      712 1
    7300     2290     2292 1
    7301      142      143 1
    7302     2504     2483 1
    7303     2544     2543 1
    7304     2882     2861 1
    7305     1960     1961 1
    7306     9654     9656 1
    7307     4110     4112 1
    7308     2532     2535 1
    7309     1999     2000 1
    7310     8460     8461 1
    7311      671      672 1
    7312     1235     1236 1
    7313     8328     8330 1
    7314     9981     9982 1
    7315     9819     9820 1
    7316     2469     2470 1
    7317     5985     5986 1
    7318     2358     2359 1
    7319     9900     9901 1
    7320     2346     2347 1
    7321     7983     7984 1
    7322    10854    10856 1
    7323     4377     4378 1
    7324     8994     8995 1
    7325     7509     7510 1
    7326     9426     9427 1
    7327     5322     5323 1
    7328     9156     9157 1
    7329     7239     7240 1
    7330     4215     4216 1
    7331     9588     9589 1
    7332     9684     9686 1
    7333     4932     4934 1
    7334    10683    10685 1
    7335    10845    10847 1
    7336     8766     8768 1
    7337     7929     7931 1
    7338     8928     8930 1
    7339     5850     5852 1
    7340     5136     5137 1
    7341     2351     2352 1
    7342     4260     4262 1
    7343     2027     2028 1
    7344     3481     3482 1
    7345     3676     3677 1
    7346     2299     2300 1
    7347     2512     2513 1
    7348     3058     3059 1
    7349     2746     2747 1
    7350     3195     3196 1
    7351      852      853 1
    7352     5730     5732 1
    7353     7485     7487 1
    7354     4542     4544 1
    7355    11400    11402 1
    7356     5568     5570 1
    7357     4623     4625 1
    7358     7566     7568 1
    7359     4461     4463 1
    7360    11481    11483 1
    7361     5649     5651 1
    7362     2754     2753 1
    7363     2258     2255 1
    7364      413      414 1
    7365     1656     1657 1
    7366     5523     5524 1
    7367     9897     9898 1
    7368     3492     3493 1
    7369     2586     2588 1
    7370    11451    11453 1
    7371     2694     2696 1
    7372     3324     3325 1
    7373      653      654 1
    7374    10821    10823 1
    7375     7728     7730 1
    7376     4848     4849 1
    7377      924      925 1
    7378      213      214 1
    7379     4116     4118 1
    7380     3900     3902 1
    7381     3356     3357 1
    7382     1812     1814 1
    7383      714      715 1
    7384     1006      985 1
    7385     1546     1548 1
    7386      615      616 1
    7387      552      553 1
    7388      522      524 1
    7389     2697     2698 1
    7390     7221     7223 1
    7391     6816     6818 1
    7392    10326    10328 1
    7393     4980     4982 1
    7394     8814     8816 1
    7395    10893    10895 1
    7396     6654     6656 1
    7397     4197     4199 1
    7398     8490     8492 1
    7399    10812    10814 1
    7400    10515    10517 1
    7401     2419     2420 1
    7402     3394     3395 1
    7403     2077     2078 1
    7404     4893     4894 1
    7405     1581     1582 1
    7406     2568     2569 1
    7407     1936     1937 1
    7408       24       25 1
    7409      717      718 1
    7410     2402     2403 1
    7411     2513     2514 1
    7412     1086     1087 1
    7413     1159     1160 1
    7414     4275     4277 1
    7415     3108     3107 1
    7416     1029     1030 1
    7417     9843     9844 1
    7418     4944     4946 1
    7419     4161     4163 1
    7420     7185     7187 1
    7421     6009     6010 1
    7422      512      513 1
    7423    10086    10087 1
    7424     8277     8278 1
    7425     6360     6361 1
    7426    10194    10195 1
    7427     6510     6511 1
    7428      935      936 1
    7429      401      402 1
    7430     1347     1348 1
    7431     2046     2048 1
    7432     1518     1519 1
    7433     3321     3322 1
    7434     3788     3789 1
    7435     3489     3490 1
    7436     3825     3826 1
    7437     1608     1609 1
    7438     3751     3752 1
    7439     1821     1822 1
    7440     1298     1299 1
    7441     1559     1560 1
    7442     3677     3678 1
    7443      576      577 1
    7444    11484    11485 1
    7445     3647     3649 1
    7446     1255     1256 1
    7447     8166     8167 1
    7448     6249     6250 1
    7449     6411     6412 1
    7450     6168     6169 1
    7451    10245    10246 1
    7452     8247     8248 1
    7453    10164    10165 1
    7454    10002    10003 1
    7455     5502     5504 1
    7456     7629     7631 1
    7457    10626    10628 1
    7458     3706     3704 1
    7459    11532    11533 1
    7460    10050    10052 1
    7461     2100     2103 1
    7462     1352     1351 1
    7463       34       13 1
    7464     9894     9896 1
    7465    11145    11146 1
    7466     7875     7876 1
    7467    10143    10144 1
    7468     6147     6148 1
    7469      555      557 1
    7470     7695     7696 1
    7471     8064     8065 1
    7472      602      605 1
    7473     5796     5797 1
    7474     6120     6121 1
    7475     9144     9146 1
    7476     2154     2155 1
    7477     1145     1146 1
    7478      140      141 1
    7479      128      129 1
    7480     9450     9452 1
    7481     2636     2637 1
    7482      937      938 1
    7483     8349     8351 1
    7484     3833     3834 1
    7485     3491     3492 1
    7486     5154     5155 1
    7487       86       87 1
    7488     2169     2170 1
    7489     3051     3050 1
    7490     2766     2765 1
    7491     2403     2404 1
    7492     2184     2185 1
    7493     2514     2515 1
    7494     2625     2626 1
    7495        5        6 1
    7496     2295     2296 1
    7497     3618     3619 1
    7498     9831     9832 1
    7499     1897     1896 1
    7500     1910     1911 1
    7501      895      896 1
    7502      208      209 1
    7503     1871     1872 1
    7504    11346    11348 1
    7505     8052     8054 1
    7506     5919     5921 1
    7507     2541     2542 1
    7508     5757     5759 1
    7509    11508    11510 1
    7510    10131    10133 1
    7511     2099     2100 1
    7512    10146    10147 1
    7513     3885     3886 1
    7514     7716     7717 1
    7515     4692     4693 1
    7516     5151     5152 1
    7517     6555     6556 1
    7518     6150     6151 1
    7519     9309     9310 1
    7520      647      648 1
    7521      305      306 1
    7522     1192     1193 1
    7523     1416     1417 1
    7524     3993     3995 1
    7525     8250     8252 1
    7526     6252     6254 1
    7527     6171     6173 1
    7528     6414     6416 1
    7529    10248    10250 1
    7530     7296     7298 1
    7531     8169     8171 1
    7532    10005    10007 1
    7533    10167    10169 1
    7534     8007     8008 1
    7535     2555     2554 1
    7536     4974     4975 1
    7537     7167     7169 1
    7538     1128     1129 1
    7539     2104     2105 1
    7540      954      956 1
    7541     3598     3599 1
    7542     4908     4910 1
    7543    10497    10499 1
    7544     6582     6584 1
    7545     1185     1186 1
    7546      698      699 1
    7547      257      258 1
    7548      587      588 1
    7549      715      716 1
    7550     9372     9374 1
    7551     4755     4757 1
    7552     1461     1462 1
    7553      759      760 1
    7554     1837     1838 1
    7555     1412     1413 1
    7556     7992     7993 1
    7557    11292    11294 1
    7558      131      132 1
    7559     3552     3554 1
    7560      446      447 1
    7561     3583     3584 1
    7562     3135     3136 1
    7563     1445     1446 1
    7564     3264     3265 1
    7565     2954     2955 1
    7566     1389     1390 1
    7567     6462     6464 1
    7568     8097     8098 1
    7569     1684     1685 1
    7570      947      948 1
    7571     1341     1342 1
    7572     8907     8908 1
    7573     9069     9070 1
    7574     6828     6829 1
    7575     3218     3219 1
    7576    10905    10906 1
    7577     7233     7234 1
    7578     8826     8827 1
    7579     4992     4993 1
    7580     4209     4210 1
    7581     7071     7072 1
    7582    10887    10889 1
    7583     7053     7055 1
    7584     8256     8258 1
    7585     8175     8177 1
    7586    10254    10256 1
    7587     6420     6422 1
    7588    10173    10175 1
    7589     6258     6260 1
    7590    10011    10013 1
    7591     6177     6179 1
    7592     1405     1406 1
    7593     2072     2051 1
    7594      598      597 1
    7595     9762     9763 1
    7596     5907     5908 1
    7597     2840     2839 1
    7598     1742     1743 1
    7599     1856     1857 1
    7600      376      377 1
    7601     5550     5552 1
    7602     6807     6808 1
    7603     2316     2319 1
    7604     2693     2694 1
    7605     2061     2060 1
    7606     2568     2567 1
    7607     8067     8068 1
    7608     2067     2068 1
    7609     9936     9938 1
    7610     6615     6616 1
    7611     6939     6940 1
    7612     4185     4186 1
    7613     8775     8776 1
    7614     7209     7210 1
    7615     4968     4969 1
    7616     8883     8884 1
    7617     6804     6805 1
    7618     7047     7048 1
    7619     8802     8803 1
    7620      993      994 1
    7621      298      299 1
    7622     2870     2871 1
    7623     2657     2658 1
    7624      708      707 1
    7625    10755    10756 1
    7626     5004     5005 1
    7627    10836    10837 1
    7628    10674    10675 1
    7629     4923     4924 1
    7630     4842     4843 1
    7631     8919     8920 1
    7632     8757     8758 1
    7633     8838     8839 1
    7634     1237     1238 1
    7635      650      652 1
    7636     4485     4486 1
    7637     5592     5593 1
    7638    10347    10349 1
    7639    11427    11429 1
    7640     7593     7595 1
    7641     8430     8432 1
    7642     9186     9188 1
    7643     5514     5516 1
    7644     2799     2800 1
    7645     2082     2083 1
    7646     9348     9350 1
    7647     6513     6515 1
    7648     3398     3399 1
    7649     2742     2744 1
    7650     8886     8888 1
    7651     1604     1605 1
    7652     4038     4039 1
    7653     6447     6449 1
    7654     4989     4991 1
    7655     3984     3985 1
    7656     4104     4105 1
    7657     1486     1487 1
    7658     1262     1263 1
    7659     2113     2114 1
    7660      639      640 1
    7661      276      277 1
    7662     2650     2651 1
    7663      210      211 1
    7664     1773     1772 1
    7665      624      625 1
    7666      687      688 1
    7667      375      376 1
    7668      912      913 1
    7669     1745     1746 1
    7670     2666     2645 1
    7671      335      336 1
    7672       17       18 1
    7673     5358     5360 1
    7674    10191    10193 1
    7675     8274     8276 1
    7676     3127     3128 1
    7677     7437     7439 1
    7678     6357     6359 1
    7679    11271    11273 1
    7680     4413     4415 1
    7681     4575     4577 1
    7682     8592     8594 1
    7683      623      624 1
    7684      686      687 1
    7685     3079     3080 1
    7686      191      192 1
    7687      485      486 1
    7688      374      375 1
    7689     3132     3133 1
    7690      992      993 1
    7691      341      339 1
    7692    10863    10865 1
    7693     2717     2718 1
    7694     2933     2934 1
    7695     2609     2610 1
    7696     2150     2151 1
    7697     1988     1989 1
    7698      409      410 1
    7699      331      332 1
    7700      285      286 1
    7701      223      224 1
    7702     1322     1323 1
    7703     6324     6325 1
    7704     8565     8566 1
    7705     4257     4258 1
    7706     6567     6568 1
    7707     4524     4525 1
    7708    10401    10402 1
    7709     9141     9142 1
    7710     2277     2278 1
    7711     8403     8404 1
    7712     1913     1914 1
    7713     1691     1692 1
    7714     1839     1840 1
    7715     1654     1655 1
    7716     3171     3172 1
    7717     3726     3727 1
    7718     8061     8062 1
    7719     8979     8980 1
    7720    11058    11059 1
    7721     9708     9709 1
    7722     6630     6631 1
    7723     6954     6955 1
    7724     5874     5875 1
    7725     7791     7792 1
    7726     4917     4919 1
    7727     1312     1313 1
    7728     4998     5000 1
    7729     2278     2279 1
    7730     3253     3254 1
    7731     1817     1818 1
    7732     2343     2344 1
    7733     3065     3066 1
    7734    10917    10918 1
    7735     1931     1934 1
    7736     7041     7042 1
    7737     6978     6979 1
    7738    10596    10597 1
    7739     6843     6844 1
    7740     9219     9220 1
    7741    11055    11056 1
    7742     8517     8518 1
    7743     6681     6682 1
    7744     9300     9301 1
    7745     8976     8977 1
    7746    11136    11137 1
    7747     2916     2917 1
    7748     2668     2669 1
    7749      691      692 1
    7750     8223     8225 1
    7751     2149     2150 1
    7752     3311     3312 1
    7753      823      824 1
    7754     2328     2329 1
    7755     5130     5131 1
    7756      170      169 1
    7757     4356     4357 1
    7758      341      342 1
    7759      246      245 1
    7760      234      233 1
    7761     6861     6862 1
    7762     7092     7093 1
    7763    10926    10927 1
    7764     5256     5257 1
    7765     2031     2032 1
    7766    11007    11008 1
    7767     2457     2458 1
    7768     1956     1957 1
    7769     5175     5176 1
    7770     7263     7264 1
    7771     6930     6931 1
    7772     6069     6071 1
    7773     6183     6184 1
    7774     2072     2073 1
    7775      919      922 1
    7776     9123     9125 1
    7777      675      676 1
    7778     2063     2064 1
    7779     2030     2031 1
    7780    11466    11468 1
    7781     9621     9622 1
    7782     3146     3147 1
    7783     2880     2881 1
    7784      164      166 1
    7785     2973     2974 1
    7786      532      533 1
    7787     2583     2584 1
    7788    10473    10474 1
    7789     5415     5416 1
    7790     1284     1285 1
    7791     3483     3484 1
    7792     3711     3712 1
    7793     3523     3524 1
    7794    10275    10276 1
    7795     1153     1154 1
    7796     8418     8419 1
    7797     8205     8206 1
    7798     2010     2009 1
    7799    10200    10202 1
    7800       98       97 1
    7801      590      591 1
    7802     7617     7619 1
    7803     4593     4595 1
    7804     1225     1226 1
    7805     8997     8999 1
    7806      100      101 1
    7807      160      161 1
    7808      148      149 1
    7809     8346     8347 1
    7810     7083     7085 1
    7811     5787     5788 1
    7812     1051     1052 1
    7813     5865     5866 1
    7814     9699     9700 1
    7815    11454    11455 1
    7816     7971     7972 1
    7817    11112    11113 1
    7818     6549     6550 1
    7819     1151     1152 1
    7820    10032    10033 1
    7821     9888     9889 1
    7822     8628     8629 1
    7823      462      463 1
    7824      774      775 1
    7825     8532     8534 1
    7826     9369     9371 1
    7827     5427     5429 1
    7828     8181     8183 1
    7829     5265     5267 1
    7830    10611    10613 1
    7831     6777     6779 1
    7832     9531     9533 1
    7833     7452     7454 1
    7834     4590     4592 1
    7835     9135     9137 1
    7836     3300     3301 1
    7837     2071     2070 1
    7838     2134     2133 1
    7839    10656    10657 1
    7840     2792     2793 1
    7841     8013     8014 1
    7842      697      696 1
    7843     1904     1905 1
    7844      120      121 1
    7845     5430     5431 1
    7846      263      262 1
    7847     7002     7003 1
    7848     3457     3459 1
    7849    10755    10757 1
    7850    10674    10676 1
    7851     4923     4925 1
    7852     8757     8759 1
    7853     8919     8921 1
    7854    10836    10838 1
    7855     1020     1021 1
    7856     8838     8840 1
    7857     4842     4844 1
    7858     5004     5006 1
    7859     2239     2240 1
    7860     2350     2351 1
    7861     2899     2900 1
    7862     7899     7901 1
    7863     5121     5123 1
    7864     2314     2315 1
    7865     2422     2423 1
    7866     3017     3018 1
    7867     3679     3680 1
    7868     1107     1106 1
    7869     5475     5476 1
    7870     6282     6283 1
    7871     8226     8227 1
    7872    10467    10468 1
    7873    10305    10306 1
    7874     9954     9955 1
    7875     8037     8038 1
    7876     8388     8389 1
    7877     2930     2931 1
    7878     2597     2598 1
    7879      740      741 1
    7880     5151     5153 1
    7881     8184     8185 1
    7882     8724     8725 1
    7883     6645     6646 1
    7884     3599     3600 1
    7885     8319     8320 1
    7886     3329     3330 1
    7887     8103     8104 1
    7888     4041     4042 1
    7889     4995     4996 1
    7890     4563     4564 1
    7891     6345     6346 1
    7892    10179    10180 1
    7893     7425     7426 1
    7894    11259    11260 1
    7895     5346     5347 1
    7896     4644     4645 1
    7897     6075     6076 1
    7898     9909     9910 1
    7899     9981     9983 1
    7900     2837     2838 1
    7901     4449     4450 1
    7902     3414     3415 1
    7903     1961     1962 1
    7904     2675     2676 1
    7905     1480     1479 1
    7906     7137     7138 1
    7907     9216     9217 1
    7908     6219     6220 1
    7909     2688     2690 1
    7910     5220     5221 1
    7911     6975     6976 1
    7912    11133    11134 1
    7913     6057     6058 1
    7914    10053    10054 1
    7915     1960     1959 1
    7916     1234     1235 1
    7917      309      310 1
    7918     1364     1365 1
    7919      355      356 1
    7920     7440     7442 1
    7921    10455    10457 1
    7922     8214     8216 1
    7923     6297     6299 1
    7924    10293    10295 1
    7925     8376     8378 1
    7926     6459     6461 1
    7927    10308    10309 1
    7928     5313     5314 1
    7929     5448     5449 1
    7930     5286     5287 1
    7931     8202     8203 1
    7932     8391     8392 1
    7933     2531     2532 1
    7934     4368     4369 1
    7935     1982     1983 1
    7936     6285     6286 1
    7937     3183     3184 1
    7938     3186     3187 1
    7939     1605     1606 1
    7940     1642     1643 1
    7941     1619     1620 1
    7942     1841     1842 1
    7943     1767     1768 1
    7944     3486     3487 1
    7945     8904     8905 1
    7946    10317    10318 1
    7947     6483     6484 1
    7948     2172     2171 1
    7949     3819     3820 1
    7950      188      187 1
    7951     5349     5351 1
    7952    11262    11264 1
    7953      600      601 1
    7954     1122     1123 1
    7955     2612     2591 1
    7956    10977    10978 1
    7957      738      740 1
    7958     5190     5192 1
    7959     1668     1669 1
    7960     1705     1706 1
    7961     7788     7790 1
    7962     5871     5873 1
    7963    10218    10220 1
    7964     6384     6386 1
    7965    11460    11462 1
    7966     8301     8303 1
    7967     8463     8465 1
    7968     9705     9707 1
    7969    10590    10592 1
    7970     5217     5219 1
    7971     1197     1198 1
    7972     3209     3210 1
    7973       21       22 1
    7974      871      872 1
    7975     4527     4528 1
    7976     7386     7387 1
    7977     4362     4363 1
    7978     8196     8197 1
    7979     1239     1240 1
    7980     2006     2007 1
    7981     7722     7723 1
    7982     1882     1883 1
    7983     1808     1809 1
    7984     1771     1772 1
    7985     1414     1415 1
    7986     7995     7997 1
    7987     5997     5999 1
    7988     7536     7538 1
    7989     5457     5459 1
    7990      404      405 1
    7991     9534     9536 1
    7992     4113     4115 1
    7993     7455     7457 1
    7994    10074    10076 1
    7995     7698     7700 1
    7996     1555     1556 1
    7997     1666     1667 1
    7998      941      942 1
    7999     1629     1630 1
    8000    11184    11185 1
    8001     2164     2165 1
    8002     6711     6713 1
    8003     2926     2927 1
    8004     8688     8690 1
    8005     6015     6017 1
    8006     6852     6854 1
    8007    10092    10094 1
    8008     7851     7853 1
    8009     6771     6773 1
    8010     8526     8528 1
    8011     6690     6692 1
    8012     8607     8609 1
    8013    10524    10526 1
    8014     6321     6322 1
    8015     1533     1534 1
    8016     6729     6731 1
    8017     4812     4814 1
    8018     8847     8848 1
    8019     6501     6502 1
    8020     4179     4180 1
    8021     7419     7420 1
    8022     9192     9193 1
    8023    10029    10030 1
    8024    11109    11110 1
    8025     4251     4252 1
    8026    10353    10354 1
    8027     7599     7600 1
    8028     6519     6520 1
    8029     6195     6196 1
    8030     8112     8113 1
    8031      704      706 1
    8032     6456     6458 1
    8033      190      191 1
    8034    11382    11384 1
    8035     7656     7658 1
    8036     4062     4064 1
    8037     5619     5620 1
    8038     3314     3315 1
    8039     1317     1318 1
    8040     6966     6967 1
    8041    10485    10486 1
    8042     9729     9730 1
    8043     2827     2826 1
    8044     2495     2496 1
    8045      320      321 1
    8046    11145    11147 1
    8047     2910     2911 1
    8048     3773     3774 1
    8049     3662     3663 1
    8050       12       11 1
    8051     7353     7355 1
    8052     8961     8962 1
    8053     7875     7877 1
    8054    10143    10145 1
    8055     8064     8066 1
    8056     5796     5798 1
    8057     6147     6149 1
    8058     6120     6122 1
    8059     5958     5960 1
    8060    10875    10876 1
    8061     4119     4121 1
    8062     1935     1934 1
    8063     3060     3061 1
    8064     2622     2623 1
    8065     2409     2410 1
    8066     7536     7537 1
    8067     2298     2299 1
    8068     2733     2734 1
    8069     2511     2512 1
    8070     1147     1148 1
    8071     2981     2982 1
    8072      125      123 1
    8073     5325     5326 1
    8074     3360     3361 1
    8075     1591     1590 1
    8076     4620     4622 1
    8077     2668     2670 1
    8078      247      248 1
    8079      676      677 1
    8080      531      532 1
    8081     1099     1100 1
    8082      420      421 1
    8083      241      242 1
    8084      454      455 1
    8085    10185    10187 1
    8086     5352     5354 1
    8087     3143     3144 1
    8088     8268     8270 1
    8089     4569     4571 1
    8090    11265    11267 1
    8091     6351     6353 1
    8092     2988     2989 1
    8093     7431     7433 1
    8094     4407     4409 1
    8095     6423     6425 1
    8096     5883     5885 1
    8097     7800     7802 1
    8098     8178     8180 1
    8099    11472    11474 1
    8100    10257    10259 1
    8101     6261     6263 1
    8102     9717     9719 1
    8103    10743    10744 1
    8104     5523     5525 1
    8105     7602     7604 1
    8106     9330     9332 1
    8107     5118     5120 1
    8108     9492     9494 1
    8109     9195     9197 1
    8110     7035     7037 1
    8111     9357     9359 1
    8112     4956     4958 1
    8113     6873     6875 1
    8114     9537     9539 1
    8115     1794     1795 1
    8116      835      834 1
    8117      801      802 1
    8118     1464     1465 1
    8119     8343     8344 1
    8120     2558     2537 1
    8121     3133     3134 1
    8122     1450     1451 1
    8123      543      544 1
    8124     3168     3169 1
    8125     1962     1963 1
    8126    10071    10072 1
    8127     4617     4618 1
    8128     2025     2026 1
    8129      224      226 1
    8130     3939     3940 1
    8131     7548     7549 1
    8132     4791     4792 1
    8133     7236     7238 1
    8134     4374     4376 1
    8135     4212     4214 1
    8136     5319     5321 1
    8137     9234     9236 1
    8138     9072     9074 1
    8139     7155     7157 1
    8140     9153     9155 1
    8141     2354     2355 1
    8142     7317     7319 1
    8143     4833     4835 1
    8144     7812     7814 1
    8145    11379    11381 1
    8146     6300     6302 1
    8147     3459     3460 1
    8148     8097     8099 1
    8149     1423     1424 1
    8150    10149    10150 1
    8151     7881     7882 1
    8152     6153     6154 1
    8153     3439     3440 1
    8154     3512     3513 1
    8155     3475     3476 1
    8156      135      136 1
    8157     3577     3578 1
    8158     5802     5803 1
    8159     8070     8071 1
    8160     3540     3541 1
    8161      736      737 1
    8162     6144     6146 1
    8163     9903     9905 1
    8164     7608     7610 1
    8165     9363     9365 1
    8166     9201     9203 1
    8167     5529     5531 1
    8168    11442    11444 1
    8169     7986     7988 1
    8170      544      545 1
    8171     7137     7139 1
    8172     9216     9218 1
    8173    10053    10055 1
    8174     6219     6221 1
    8175     1410     1409 1
    8176     6975     6977 1
    8177     6057     6059 1
    8178     5220     5222 1
    8179     8136     8138 1
    8180        8       10 1
    8181     5907     5909 1
    8182     2569     2570 1
    8183     2347     2348 1
    8184    10221    10223 1
    8185     8115     8117 1
    8186     6387     6389 1
    8187     3534     3535 1
    8188     4863     4864 1
    8189     2788     2789 1
    8190     3282     3283 1
    8191     2909     2910 1
    8192     2863     2864 1
    8193     8298     8299 1
    8194     9006     9008 1
    8195     1692     1693 1
    8196     2349     2350 1
    8197     8067     8069 1
    8198     1252     1253 1
    8199     5214     5215 1
    8200    10047    10048 1
    8201     7131     7132 1
    8202     6213     6214 1
    8203     9210     9211 1
    8204     3332     3333 1
    8205     3836     3837 1
    8206     6969     6970 1
    8207    11502    11503 1
    8208    10125    10126 1
    8209    11340    11341 1
    8210     8046     8047 1
    8211     5913     5914 1
    8212     5751     5752 1
    8213     6129     6130 1
    8214     3951     3953 1
    8215     1392     1393 1
    8216     3522     3521 1
    8217     2660     2661 1
    8218       52       53 1
    8219     5571     5572 1
    8220     5733     5734 1
    8221     6543     6544 1
    8222    11106    11107 1
    8223     7272     7273 1
    8224     6921     6922 1
    8225     4464     4465 1
    8226     7488     7489 1
    8227     4626     4627 1
    8228     1003     1004 1
    8229     1455     1456 1
    8230     1231     1232 1
    8231     3049     3050 1
    8232      434      436 1
    8233     4140     4141 1
    8234     4068     4069 1
    8235     9255     9256 1
    8236     9093     9094 1
    8237     4314     4315 1
    8238     2090     2091 1
    8239     7338     7339 1
    8240     7176     7177 1
    8241     4290     4291 1
    8242     3794     3795 1
    8243     3683     3684 1
    8244     2377     2378 1
    8245     1376     1377 1
    8246     5010     5011 1
    8247     3477     3478 1
    8248     1888     1890 1
    8249     2505     2504 1
    8250      837      838 1
    8251     1345     1346 1
    8252     1062     1064 1
    8253     9327     9329 1
    8254     9489     9491 1
    8255    11325    11327 1
    8256     9408     9410 1
    8257    11244    11246 1
    8258    11163    11165 1
    8259     5412     5414 1
    8260     5493     5495 1
    8261     7410     7412 1
    8262      365      366 1
    8263      902      903 1
    8264     1034     1035 1
    8265      476      477 1
    8266     1251     1252 1
    8267      989      990 1
    8268     3236     3237 1
    8269      158      159 1
    8270     2603     2604 1
    8271     2861     2862 1
    8272     9564     9565 1
    8273     7647     7648 1
    8274     7809     7810 1
    8275     9375     9376 1
    8276     5892     5893 1
    8277     3629     3630 1
    8278     9537     9538 1
    8279     9726     9727 1
    8280     7620     7621 1
    8281     7458     7459 1
    8282      666      667 1
    8283     3385     3386 1
    8284     2246     2247 1
    8285     2570     2571 1
    8286     3373     3374 1
    8287    11295    11297 1
    8288     1205     1206 1
    8289     4041     4043 1
    8290     6495     6497 1
    8291      197      198 1
    8292     9237     9239 1
    8293     7158     7160 1
    8294     7590     7592 1
    8295     7320     7322 1
    8296    11424    11426 1
    8297     9345     9347 1
    8298     9075     9077 1
    8299     4296     4298 1
    8300     9183     9185 1
    8301     5511     5513 1
    8302     3731     3732 1
    8303      526      527 1
    8304     2160     2159 1
    8305      304      305 1
    8306     6897     6898 1
    8307     1243     1244 1
    8308     8538     8540 1
    8309     2421     2422 1
    8310     4173     4174 1
    8311     5031     5032 1
    8312     9120     9121 1
    8313      582      583 1
    8314     5169     5170 1
    8315     6924     6925 1
    8316    11001    11002 1
    8317     5250     5251 1
    8318      513      514 1
    8319     7005     7006 1
    8320      408      409 1
    8321      477      478 1
    8322    10920    10921 1
    8323     7086     7087 1
    8324     7041     7043 1
    8325      451      450 1
    8326      980      981 1
    8327      332      333 1
    8328    11043    11044 1
    8329     4518     4519 1
    8330     3421     3422 1
    8331     5130     5132 1
    8332     1923     1924 1
    8333     9102     9103 1
    8334     7473     7474 1
    8335    10116    10117 1
    8336     4176     4177 1
    8337    11034    11035 1
    8338       88       67 1
    8339     4338     4339 1
    8340    11196    11197 1
    8341     9279     9280 1
    8342     3035     3036 1
    8343     4257     4259 1
    8344     6402     6404 1
    8345     2279     2280 1
    8346     2802     2803 1
    8347     7263     7265 1
    8348     6183     6185 1
    8349      628      629 1
    8350     6882     6883 1
    8351    10716    10717 1
    8352    10926    10928 1
    8353     5256     5258 1
    8354     6930     6932 1
    8355    11007    11009 1
    8356     5175     5177 1
    8357     5094     5096 1
    8358     7011     7013 1
    8359     7092     7094 1
    8360     9399     9401 1
    8361     3434     3435 1
    8362     4434     4435 1
    8363      217      220 1
    8364     2217     2218 1
    8365      337      338 1
    8366     2010     2011 1
    8367      389      386 1
    8368     5559     5561 1
    8369     9582     9584 1
    8370     7395     7397 1
    8371     4371     4373 1
    8372     9150     9152 1
    8373     5316     5318 1
    8374     7827     7829 1
    8375     5910     5912 1
    8376     9744     9746 1
    8377     7908     7910 1
    8378     1756     1757 1
    8379     8664     8665 1
    8380     9777     9779 1
    8381    10473    10475 1
    8382     4134     4135 1
    8383      206      205 1
    8384     8763     8765 1
    8385     4929     4931 1
    8386     8736     8738 1
    8387    10572    10574 1
    8388     5010     5012 1
    8389     8925     8927 1
    8390    10842    10844 1
    8391     8493     8495 1
    8392    10329    10331 1
    8393       90       91 1
    8394     4599     4600 1
    8395     9540     9541 1
    8396     8661     8662 1
    8397     8910     8911 1
    8398       85       86 1
    8399     4986     4988 1
    8400     8418     8420 1
    8401     8205     8207 1
    8402     7326     7327 1
    8403      443      444 1
    8404     8835     8836 1
    8405      926      927 1
    8406     6600     6601 1
    8407     8031     8032 1
    8408     1950     1949 1
    8409     4035     4036 1
    8410     8466     8467 1
    8411     5388     5389 1
    8412     1520     1521 1
    8413     2852     2850 1
    8414     3870     3872 1
    8415     3420     3421 1
    8416     9126     9128 1
    8417     4509     4511 1
    8418    11367    11369 1
    8419    11286    11288 1
    8420     5292     5294 1
    8421     4266     4268 1
    8422     5373     5375 1
    8423    11205    11207 1
    8424     5535     5537 1
    8425     4428     4430 1
    8426     1477     1478 1
    8427     4392     4394 1
    8428       35       34 1
    8429      830      831 1
    8430      518      519 1
    8431     3286     3287 1
    8432     5181     5182 1
    8433    10338    10339 1
    8434    11013    11014 1
    8435     8745     8746 1
    8436     5262     5263 1
    8437     8340     8341 1
    8438     3155     3156 1
    8439     1968     1969 1
    8440     8502     8503 1
    8441     6936     6937 1
    8442     2871     2872 1
    8443      520      521 1
    8444     5145     5147 1
    8445     8931     8933 1
    8446     8769     8771 1
    8447     6663     6665 1
    8448    10578    10580 1
    8449     5016     5018 1
    8450     8850     8852 1
    8451    10686    10688 1
    8452    10848    10850 1
    8453     8499     8501 1
    8454     6726     6727 1
    8455     8898     8899 1
    8456     8013     8015 1
    8457     9783     9785 1
    8458     7569     7570 1
    8459     5166     5168 1
    8460     5571     5573 1
    8461     4626     4628 1
    8462     5733     5735 1
    8463     6543     6545 1
    8464    10377    10379 1
    8465    11106    11108 1
    8466     7272     7274 1
    8467     6921     6923 1
    8468     5031     5033 1
    8469     1023     1024 1
    8470     2806     2807 1
    8471     2206     2207 1
    8472     2774     2775 1
    8473      464      465 1
    8474     3028     3027 1
    8475     2774     2753 1
    8476     7623     7625 1
    8477     7554     7555 1
    8478     6957     6958 1
    8479     6633     6634 1
    8480    10548    10549 1
    8481     8793     8794 1
    8482     2565     2566 1
    8483     4797     4798 1
    8484     6714     6715 1
    8485     2644     2643 1
    8486     4878     4879 1
    8487     3742     3741 1
    8488     5475     5477 1
    8489      959      958 1
    8490      946      947 1
    8491     8478     8479 1
    8492     6993     6994 1
    8493     6642     6643 1
    8494     6912     6913 1
    8495     8226     8228 1
    8496     8316     8317 1
    8497     8721     8722 1
    8498     6282     6284 1
    8499    10989    10990 1
    8500     5238     5239 1
    8501    10467    10469 1
    8502    10509    10510 1
    8503     4017     4019 1
    8504     2828     2829 1
    8505     4293     4295 1
    8506     2684     2685 1
    8507     2672     2673 1
    8508     4449     4451 1
    8509     3161     3162 1
    8510     6165     6166 1
    8511    10242    10243 1
    8512     8433     8434 1
    8513     8244     8245 1
    8514    10161    10162 1
    8515     6597     6598 1
    8516     6246     6247 1
    8517    10350    10351 1
    8518     6516     6517 1
    8519     1157     1158 1
    8520      813      814 1
    8521     1065     1066 1
    8522      381      382 1
    8523     1681     1682 1
    8524     4092     4093 1
    8525     3821     3822 1
    8526     3479     3480 1
    8527     5118     5119 1
    8528     4722     4724 1
    8529     5829     5831 1
    8530     3014     3012 1
    8531      647      646 1
    8532     2928     2927 1
    8533     9750     9752 1
    8534     1305     1306 1
    8535     1865     1866 1
    8536     3339     3340 1
    8537     1475     1476 1
    8538     1532     1533 1
    8539     3182     3183 1
    8540     2494     2493 1
    8541     5034     5035 1
    8542     8037     8039 1
    8543      933      934 1
    8544    11223    11224 1
    8545      166      167 1
    8546     2522     2523 1
    8547     4074     4075 1
    8548      194      193 1
    8549     2406     2405 1
    8550    10581    10582 1
    8551     2003     2004 1
    8552     1623     1624 1
    8553     3984     3986 1
    8554     4104     4106 1
    8555     6186     6188 1
    8556     1574     1575 1
    8557     1805     1806 1
    8558     1731     1732 1
    8559     1879     1880 1
    8560     1928     1929 1
    8561     9738     9739 1
    8562    10761    10763 1
    8563     6387     6388 1
    8564    10221    10222 1
    8565     8115     8116 1
    8566     7737     7738 1
    8567     5469     5470 1
    8568     9033     9034 1
    8569     8655     8656 1
    8570     6738     6739 1
    8571     7116     7117 1
    8572     7710     7711 1
    8573     3777     3778 1
    8574     3740     3741 1
    8575     2929     2930 1
    8576     3040     3041 1
    8577     9579     9581 1
    8578    10956    10958 1
    8579     8715     8717 1
    8580     8877     8879 1
    8581     7824     7826 1
    8582     4422     4424 1
    8583     9417     9419 1
    8584     7446     7448 1
    8585     4584     4586 1
    8586    10794    10796 1
    8587     1034     1036 1
    8588     1493     1494 1
    8589     5793     5794 1
    8590     5856     5857 1
    8591     2559     2560 1
    8592      932      933 1
    8593    10725    10727 1
    8594     6891     6893 1
    8595     8619     8621 1
    8596     9420     9421 1
    8597     1220     1221 1
    8598     4125     4126 1
    8599     6501     6503 1
    8600    10335    10337 1
    8601     3068     3069 1
    8602     4179     4181 1
    8603     7419     7421 1
    8604     2365     2366 1
    8605     3121     3120 1
    8606     3117     3118 1
    8607     8667     8668 1
    8608     2181     2182 1
    8609     1100     1101 1
    8610      563      564 1
    8611     6966     6968 1
    8612     5655     5657 1
    8613     9495     9496 1
    8614     9333     9334 1
    8615     9414     9415 1
    8616     5499     5500 1
    8617    11250    11251 1
    8618    11331    11332 1
    8619     5418     5419 1
    8620    11169    11170 1
    8621     4527     4529 1
    8622     7416     7417 1
    8623     6987     6989 1
    8624     2474     2475 1
    8625     9993     9995 1
    8626        7        8 1
    8627     3098     3099 1
    8628      196      197 1
    8629     3583     3582 1
    8630     8961     8963 1
    8631     3888     3890 1
    8632     1098     1099 1
    8633     1110     1111 1
    8634      243      244 1
    8635    10875    10877 1
    8636     5700     5701 1
    8637     6885     6886 1
    8638     8811     8812 1
    8639     2950     2951 1
    8640      892      893 1
    8641     5577     5579 1
    8642     4470     4472 1
    8643     5406     5408 1
    8644     9483     9485 1
    8645     2658     2659 1
    8646     9402     9404 1
    8647     9321     9323 1
    8648    11319    11321 1
    8649     3453     3454 1
    8650     9525     9526 1
    8651     7770     7771 1
    8652     5691     5692 1
    8653    11010    11011 1
    8654     5259     5260 1
    8655     7014     7015 1
    8656     4746     4747 1
    8657     5097     5098 1
    8658     6693     6695 1
    8659     6855     6857 1
    8660     8610     8612 1
    8661     9528     9530 1
    8662     2161     2163 1
    8663     4749     4751 1
    8664     5694     5696 1
    8665     7773     7775 1
    8666    10527    10529 1
    8667    10311    10312 1
    8668    10743    10745 1
    8669     7143     7145 1
    8670    10545    10547 1
    8671     6225     6227 1
    8672     8790     8792 1
    8673     4794     4796 1
    8674     9789     9791 1
    8675     5631     5633 1
    8676     6981     6983 1
    8677     5226     5228 1
    8678     6063     6065 1
    8679      652      653 1
    8680     2368     2367 1
    8681     9291     9292 1
    8682     5070     5071 1
    8683    10281    10282 1
    8684      516      517 1
    8685      831      832 1
    8686     1053     1054 1
    8687      504      505 1
    8688      840      841 1
    8689      720      721 1
    8690     8343     8345 1
    8691       22       23 1
    8692     3086     3085 1
    8693    10953    10954 1
    8694     5193     5195 1
    8695     2901     2902 1
    8696     1953     1954 1
    8697     1073     1074 1
    8698     6327     6328 1
    8699      137      138 1
    8700     1813     1814 1
    8701     3304     3305 1
    8702     3891     3892 1
    8703     8106     8107 1
    8704     5028     5029 1
    8705    11103    11104 1
    8706     7107     7108 1
    8707     7269     7270 1
    8708    10023    10024 1
    8709     6189     6190 1
    8710     9024     9025 1
    8711     5190     5191 1
    8712     4245     4246 1
    8713    11508    11509 1
    8714    10935    10937 1
    8715    10773    10775 1
    8716     8694     8696 1
    8717     7938     7940 1
    8718     6021     6023 1
    8719     8856     8858 1
    8720     9855     9857 1
    8721     1279     1280 1
    8722     2681     2682 1
    8723     4791     4793 1
    8724     3357     3358 1
    8725     1160     1161 1
    8726     3610     3611 1
    8727      734      735 1
    8728     6720     6721 1
    8729     5343     5344 1
    8730     7260     7261 1
    8731     7341     7342 1
    8732     4236     4237 1
    8733    11094    11095 1
    8734     4317     4318 1
    8735     9177     9178 1
    8736     3466     3467 1
    8737     9258     9259 1
    8738     9096     9097 1
    8739     9795     9797 1
    8740     8796     8798 1
    8741     5637     5639 1
    8742     4800     4802 1
    8743     6015     6016 1
    8744    10551    10553 1
    8745     9633     9635 1
    8746     6717     6719 1
    8747       36       38 1
    8748      926      928 1
    8749     6819     6820 1
    8750     9771     9773 1
    8751     1633     1634 1
    8752     7308     7309 1
    8753     2097     2098 1
    8754     3150     3151 1
    8755     6597     6599 1
    8756     8163     8165 1
    8757    10161    10163 1
    8758     6165     6167 1
    8759     8433     8435 1
    8760    10350    10352 1
    8761    10242    10244 1
    8762     8244     8246 1
    8763     6246     6248 1
    8764    10431    10433 1
    8765      915      916 1
    8766      300      301 1
    8767     2137     2138 1
    8768     5199     5201 1
    8769     1929     1930 1
    8770     3975     3976 1
    8771     1938     1939 1
    8772     1886     1887 1
    8773     7839     7841 1
    8774    10389    10390 1
    8775     4680     4682 1
    8776     7614     7616 1
    8777      730      731 1
    8778     9423     9424 1
    8779     9585     9586 1
    8780     6588     6589 1
    8781     6426     6427 1
    8782     7506     7507 1
    8783     7344     7345 1
    8784     4482     4483 1
    8785     1436     1437 1
    8786     5589     5590 1
    8787    10422    10423 1
    8788    11070    11071 1
    8789     1165     1166 1
    8790     1377     1378 1
    8791     4095     4097 1
    8792       49       50 1
    8793     2663     2664 1
    8794     3861     3863 1
    8795    10458    10459 1
    8796    11376    11377 1
    8797    10296    10297 1
    8798     5301     5302 1
    8799     7380     7381 1
    8800     9135     9136 1
    8801    11214    11215 1
    8802     6300     6301 1
    8803     8217     8218 1
    8804     7812     7813 1
    8805      849      850 1
    8806      537      538 1
    8807     3557     3558 1
    8808     6423     6424 1
    8809     9780     9782 1
    8810     5622     5624 1
    8811    11535    11537 1
    8812     9807     9809 1
    8813     5973     5975 1
    8814     9618     9620 1
    8815      319      320 1
    8816     9969     9971 1
    8817     1979     1980 1
    8818     3180     3181 1
    8819     3448     3447 1
    8820     9582     9583 1
    8821     9492     9493 1
    8822     2478     2480 1
    8823     3018     3020 1
    8824      259      258 1
    8825     6618     6620 1
    8826     4290     4292 1
    8827     1718     1719 1
    8828      547      546 1
    8829     4086     4087 1
    8830    10362    10364 1
    8831     2706     2705 1
    8832     1268     1269 1
    8833     9768     9769 1
    8834     3996     3998 1
    8835      645      646 1
    8836      729      730 1
    8837      618      619 1
    8838     8262     8263 1
    8839     4833     4834 1
    8840     3121     3122 1
    8841       26       27 1
    8842     1899     1900 1
    8843     5817     5819 1
    8844     5466     5468 1
    8845     9462     9464 1
    8846     7545     7547 1
    8847     4683     4685 1
    8848     7896     7898 1
    8849     4710     4712 1
    8850     7734     7736 1
    8851     9651     9653 1
    8852     7707     7709 1
@<TRIPOS>SUBSTRUCTURE
       1 RES             1 RESIDUE    0 **** ROOT      0
