@<TRIPOS>MOLECULE
RES
10112 7424 1 0 1
SMALL
NO_CHARGES
@<TRIPOS>CRYSIN
   45.1933    45.3892    89.8640    90.0000    90.0000    90.0000  1  1
@<TRIPOS>ATOM
       1 CH3         32.6074    31.6911     0.0278 CH3           1 RES     
       2 CH2         32.4388    30.8596    -1.1726 CH2           1 RES     
       3 CH2         32.6154    31.7307    -2.4303 CH2           1 RES     
       4 CH2         32.4388    30.8596    -3.6879 CH2           1 RES     
       5 CH2         32.6154    31.7307    -4.9455 CH2           1 RES     
       6 CH2         32.4388    30.8596    -6.2032 CH2           1 RES     
       7 CH2         32.6154    31.7307    -7.4608 CH2           1 RES     
       8 CH2         32.4388    30.8596    -8.7184 CH2           1 RES     
       9 CH2         32.6154    31.7307    -9.9760 CH2           1 RES     
      10 CH2         32.4388    30.8596   -11.2337 CH2           1 RES     
      11 CH2         32.6154    31.7307   -12.4913 CH2           1 RES     
      12 CH2         32.4388    30.8596   -13.7489 CH2           1 RES     
      13 CH2         32.6154    31.7307   -15.0065 CH2           1 RES     
      14 CH2         32.4388    30.8596   -16.2642 CH2           1 RES     
      15 CH2         32.6154    31.7307   -17.5218 CH2           1 RES     
      16 O           32.8634    32.8634     0.0000 O             1 RES     
      17 C           32.6099    31.6598     0.0000 C             1 RES     
      18 OA          32.4759    30.9651     1.1322 OA            1 RES     
      19 H           32.6108    31.5673     1.8675 H             1 RES     
      20 CH3         10.3575    37.2997     0.0278 CH3           1 RES     
      21 CH2          9.9464    36.5575    -1.1726 CH2           1 RES     
      22 CH2         10.3771    37.3351    -2.4303 CH2           1 RES     
      23 CH2          9.9464    36.5575    -3.6879 CH2           1 RES     
      24 CH2         10.3771    37.3351    -4.9455 CH2           1 RES     
      25 CH2          9.9464    36.5575    -6.2032 CH2           1 RES     
      26 CH2         10.3771    37.3351    -7.4608 CH2           1 RES     
      27 CH2          9.9464    36.5575    -8.7184 CH2           1 RES     
      28 CH2         10.3771    37.3351    -9.9760 CH2           1 RES     
      29 CH2          9.9464    36.5575   -11.2337 CH2           1 RES     
      30 CH2         10.3771    37.3351   -12.4913 CH2           1 RES     
      31 CH2          9.9464    36.5575   -13.7489 CH2           1 RES     
      32 CH2         10.3771    37.3351   -15.0065 CH2           1 RES     
      33 CH2          9.9464    36.5575   -16.2642 CH2           1 RES     
      34 CH2         10.3771    37.3351   -17.5218 CH2           1 RES     
      35 O           10.9545    38.3406     0.0000 O             1 RES     
      36 C           10.3504    37.2691     0.0000 C             1 RES     
      37 OA          10.0136    36.6470     1.1322 OA            1 RES     
      38 H           10.3235    37.1807     1.8675 H             1 RES     
      39 CH3         21.9851     9.7570     0.0278 CH3           1 RES     
      40 CH2         22.0517     8.9112    -1.1726 CH2           1 RES     
      41 CH2         21.9820     9.7973    -2.4303 CH2           1 RES     
      42 CH2         22.0517     8.9112    -3.6879 CH2           1 RES     
      43 CH2         21.9820     9.7973    -4.9455 CH2           1 RES     
      44 CH2         22.0517     8.9112    -6.2032 CH2           1 RES     
      45 CH2         21.9820     9.7973    -7.4608 CH2           1 RES     
      46 CH2         22.0517     8.9112    -8.7184 CH2           1 RES     
      47 CH2         21.9820     9.7973    -9.9760 CH2           1 RES     
      48 CH2         22.0517     8.9112   -11.2337 CH2           1 RES     
      49 CH2         21.9820     9.7973   -12.4913 CH2           1 RES     
      50 CH2         22.0517     8.9112   -13.7489 CH2           1 RES     
      51 CH2         21.9820     9.7973   -15.0065 CH2           1 RES     
      52 CH2         22.0517     8.9112   -16.2642 CH2           1 RES     
      53 CH2         21.9820     9.7973   -17.5218 CH2           1 RES     
      54 O           21.9089    10.9545     0.0000 O             1 RES     
      55 C           21.9961     9.7275     0.0000 C             1 RES     
      56 OA          22.0583     9.0228     1.1322 OA            1 RES     
      57 H           22.0224     9.6389     1.8675 H             1 RES     
      58 CH3          0.0495    26.1873     0.0278 CH3           1 RES     
      59 CH2          0.0972    25.3402    -1.1726 CH2           1 RES     
      60 CH2          0.0472    26.2276    -2.4303 CH2           1 RES     
      61 CH2          0.0972    25.3402    -3.6879 CH2           1 RES     
      62 CH2          0.0472    26.2276    -4.9455 CH2           1 RES     
      63 CH2          0.0972    25.3402    -6.2032 CH2           1 RES     
      64 CH2          0.0472    26.2276    -7.4608 CH2           1 RES     
      65 CH2          0.0972    25.3402    -8.7184 CH2           1 RES     
      66 CH2          0.0472    26.2276    -9.9760 CH2           1 RES     
      67 CH2          0.0972    25.3402   -11.2337 CH2           1 RES     
      68 CH2          0.0472    26.2276   -12.4913 CH2           1 RES     
      69 CH2          0.0972    25.3402   -13.7489 CH2           1 RES     
      70 CH2          0.0472    26.2276   -15.0065 CH2           1 RES     
      71 CH2          0.0972    25.3402   -16.2642 CH2           1 RES     
      72 CH2          0.0472    26.2276   -17.5218 CH2           1 RES     
      73 O            0.0000    27.3861     0.0000 O             1 RES     
      74 C            0.0598    26.1576     0.0000 C             1 RES     
      75 OA           0.1063    25.4516     1.1322 OA            1 RES     
      76 H            0.0842    26.0684     1.8675 H             1 RES     
      77 CH3         11.4930    15.3595     0.0278 CH3           1 RES     
      78 CH2         11.8851    14.6071    -1.1726 CH2           1 RES     
      79 CH2         11.4744    15.3953    -2.4303 CH2           1 RES     
      80 CH2         11.8851    14.6071    -3.6879 CH2           1 RES     
      81 CH2         11.4744    15.3953    -4.9455 CH2           1 RES     
      82 CH2         11.8851    14.6071    -6.2032 CH2           1 RES     
      83 CH2         11.4744    15.3953    -7.4608 CH2           1 RES     
      84 CH2         11.8851    14.6071    -8.7184 CH2           1 RES     
      85 CH2         11.4744    15.3953    -9.9760 CH2           1 RES     
      86 CH2         11.8851    14.6071   -11.2337 CH2           1 RES     
      87 CH2         11.4744    15.3953   -12.4913 CH2           1 RES     
      88 CH2         11.8851    14.6071   -13.7489 CH2           1 RES     
      89 CH2         11.4744    15.3953   -15.0065 CH2           1 RES     
      90 CH2         11.8851    14.6071   -16.2642 CH2           1 RES     
      91 CH2         11.4744    15.3953   -17.5218 CH2           1 RES     
      92 O           10.9545    16.4317     0.0000 O             1 RES     
      93 C           11.5147    15.3367     0.0000 C             1 RES     
      94 OA          11.8476    14.7124     1.1322 OA            1 RES     
      95 H           11.5736    15.2654     1.8675 H             1 RES     
      96 CH3          5.6444    37.1524     0.0278 CH3           1 RES     
      97 CH2          5.7751    36.3141    -1.1726 CH2           1 RES     
      98 CH2          5.6382    37.1923    -2.4303 CH2           1 RES     
      99 CH2          5.7751    36.3141    -3.6879 CH2           1 RES     
     100 CH2          5.6382    37.1923    -4.9455 CH2           1 RES     
     101 CH2          5.7751    36.3141    -6.2032 CH2           1 RES     
     102 CH2          5.6382    37.1923    -7.4608 CH2           1 RES     
     103 CH2          5.7751    36.3141    -8.7184 CH2           1 RES     
     104 CH2          5.6382    37.1923    -9.9760 CH2           1 RES     
     105 CH2          5.7751    36.3141   -11.2337 CH2           1 RES     
     106 CH2          5.6382    37.1923   -12.4913 CH2           1 RES     
     107 CH2          5.7751    36.3141   -13.7489 CH2           1 RES     
     108 CH2          5.6382    37.1923   -15.0065 CH2           1 RES     
     109 CH2          5.7751    36.3141   -16.2642 CH2           1 RES     
     110 CH2          5.6382    37.1923   -17.5218 CH2           1 RES     
     111 O            5.4772    38.3406     0.0000 O             1 RES     
     112 C            5.6576    37.1239     0.0000 C             1 RES     
     113 OA           5.7733    36.4259     1.1322 OA            1 RES     
     114 H            5.6906    37.0375     1.8675 H             1 RES     
     115 CH3         27.7557    31.7218     0.0278 CH3           1 RES     
     116 CH2         28.0291    30.9187    -1.1726 CH2           1 RES     
     117 CH2         27.7427    31.7601    -2.4303 CH2           1 RES     
     118 CH2         28.0291    30.9187    -3.6879 CH2           1 RES     
     119 CH2         27.7427    31.7601    -4.9455 CH2           1 RES     
     120 CH2         28.0291    30.9187    -6.2032 CH2           1 RES     
     121 CH2         27.7427    31.7601    -7.4608 CH2           1 RES     
     122 CH2         28.0291    30.9187    -8.7184 CH2           1 RES     
     123 CH2         27.7427    31.7601    -9.9760 CH2           1 RES     
     124 CH2         28.0291    30.9187   -11.2337 CH2           1 RES     
     125 CH2         27.7427    31.7601   -12.4913 CH2           1 RES     
     126 CH2         28.0291    30.9187   -13.7489 CH2           1 RES     
     127 CH2         27.7427    31.7601   -15.0065 CH2           1 RES     
     128 CH2         28.0291    30.9187   -16.2642 CH2           1 RES     
     129 CH2         27.7427    31.7601   -17.5218 CH2           1 RES     
     130 O           27.3861    32.8634     0.0000 O             1 RES     
     131 C           27.7736    31.6960     0.0000 C             1 RES     
     132 OA          28.0080    31.0284     1.1322 OA            1 RES     
     133 H           27.8210    31.6166     1.8675 H             1 RES     
     134 CH3          6.0254    31.7960     0.0278 CH3           1 RES     
     135 CH2          6.4243    31.0472    -1.1726 CH2           1 RES     
     136 CH2          6.0064    31.8317    -2.4303 CH2           1 RES     
     137 CH2          6.4243    31.0472    -3.6879 CH2           1 RES     
     138 CH2          6.0064    31.8317    -4.9455 CH2           1 RES     
     139 CH2          6.4243    31.0472    -6.2032 CH2           1 RES     
     140 CH2          6.0064    31.8317    -7.4608 CH2           1 RES     
     141 CH2          6.4243    31.0472    -8.7184 CH2           1 RES     
     142 CH2          6.0064    31.8317    -9.9760 CH2           1 RES     
     143 CH2          6.4243    31.0472   -11.2337 CH2           1 RES     
     144 CH2          6.0064    31.8317   -12.4913 CH2           1 RES     
     145 CH2          6.4243    31.0472   -13.7489 CH2           1 RES     
     146 CH2          6.0064    31.8317   -15.0065 CH2           1 RES     
     147 CH2          6.4243    31.0472   -16.2642 CH2           1 RES     
     148 CH2          6.0064    31.8317   -17.5218 CH2           1 RES     
     149 O            5.4772    32.8634     0.0000 O             1 RES     
     150 C            6.0473    31.7734     0.0000 C             1 RES     
     151 OA           6.3858    31.1522     1.1322 OA            1 RES     
     152 H            6.1068    31.7027     1.8675 H             1 RES     
     153 CH3         32.9921    37.1476     0.0278 CH3           1 RES     
     154 CH2         33.0958    36.3056    -1.1726 CH2           1 RES     
     155 CH2         32.9872    37.1877    -2.4303 CH2           1 RES     
     156 CH2         33.0958    36.3056    -3.6879 CH2           1 RES     
     157 CH2         32.9872    37.1877    -4.9455 CH2           1 RES     
     158 CH2         33.0958    36.3056    -6.2032 CH2           1 RES     
     159 CH2         32.9872    37.1877    -7.4608 CH2           1 RES     
     160 CH2         33.0958    36.3056    -8.7184 CH2           1 RES     
     161 CH2         32.9872    37.1877    -9.9760 CH2           1 RES     
     162 CH2         33.0958    36.3056   -11.2337 CH2           1 RES     
     163 CH2         32.9872    37.1877   -12.4913 CH2           1 RES     
     164 CH2         33.0958    36.3056   -13.7489 CH2           1 RES     
     165 CH2         32.9872    37.1877   -15.0065 CH2           1 RES     
     166 CH2         33.0958    36.3056   -16.2642 CH2           1 RES     
     167 CH2         32.9872    37.1877   -17.5218 CH2           1 RES     
     168 O           32.8634    38.3406     0.0000 O             1 RES     
     169 C           33.0044    37.1187     0.0000 C             1 RES     
     170 OA          33.0975    36.4173     1.1322 OA            1 RES     
     171 H           33.0346    37.0313     1.8675 H             1 RES     
     172 CH3         32.7304    20.7164     0.0278 CH3           1 RES     
     173 CH2         32.6489    19.8719    -1.1726 CH2           1 RES     
     174 CH2         32.7342    20.7566    -2.4303 CH2           1 RES     
     175 CH2         32.6489    19.8719    -3.6879 CH2           1 RES     
     176 CH2         32.7342    20.7566    -4.9455 CH2           1 RES     
     177 CH2         32.6489    19.8719    -6.2032 CH2           1 RES     
     178 CH2         32.7342    20.7566    -7.4608 CH2           1 RES     
     179 CH2         32.6489    19.8719    -8.7184 CH2           1 RES     
     180 CH2         32.7342    20.7566    -9.9760 CH2           1 RES     
     181 CH2         32.6489    19.8719   -11.2337 CH2           1 RES     
     182 CH2         32.7342    20.7566   -12.4913 CH2           1 RES     
     183 CH2         32.6489    19.8719   -13.7489 CH2           1 RES     
     184 CH2         32.7342    20.7566   -15.0065 CH2           1 RES     
     185 CH2         32.6489    19.8719   -16.2642 CH2           1 RES     
     186 CH2         32.7342    20.7566   -17.5218 CH2           1 RES     
     187 O           32.8634    21.9089     0.0000 O             1 RES     
     188 C           32.7361    20.6855     0.0000 C             1 RES     
     189 OA          32.6749    19.9807     1.1322 OA            1 RES     
     190 H           32.7466    20.5936     1.8675 H             1 RES     
     191 CH3         38.5561     4.2968     0.0278 CH3           1 RES     
     192 CH2         38.7209     3.4646    -1.1726 CH2           1 RES     
     193 CH2         38.5482     4.3365    -2.4303 CH2           1 RES     
     194 CH2         38.7209     3.4646    -3.6879 CH2           1 RES     
     195 CH2         38.5482     4.3365    -4.9455 CH2           1 RES     
     196 CH2         38.7209     3.4646    -6.2032 CH2           1 RES     
     197 CH2         38.5482     4.3365    -7.4608 CH2           1 RES     
     198 CH2         38.7209     3.4646    -8.7184 CH2           1 RES     
     199 CH2         38.5482     4.3365    -9.9760 CH2           1 RES     
     200 CH2         38.7209     3.4646   -11.2337 CH2           1 RES     
     201 CH2         38.5482     4.3365   -12.4913 CH2           1 RES     
     202 CH2         38.7209     3.4646   -13.7489 CH2           1 RES     
     203 CH2         38.5482     4.3365   -15.0065 CH2           1 RES     
     204 CH2         38.7209     3.4646   -16.2642 CH2           1 RES     
     205 CH2         38.5482     4.3365   -17.5218 CH2           1 RES     
     206 O           38.3406     5.4772     0.0000 O             1 RES     
     207 C           38.5704     4.2689     0.0000 C             1 RES     
     208 OA          38.7145     3.5762     1.1322 OA            1 RES     
     209 H           38.6069     4.1839     1.8675 H             1 RES     
     210 CH3         27.2367    -1.1906     0.0278 CH3           1 RES     
     211 CH2         27.1436    -2.0338    -1.1726 CH2           1 RES     
     212 CH2         27.2411    -1.1504    -2.4303 CH2           1 RES     
     213 CH2         27.1436    -2.0338    -3.6879 CH2           1 RES     
     214 CH2         27.2411    -1.1504    -4.9455 CH2           1 RES     
     215 CH2         27.1436    -2.0338    -6.2032 CH2           1 RES     
     216 CH2         27.2411    -1.1504    -7.4608 CH2           1 RES     
     217 CH2         27.1436    -2.0338    -8.7184 CH2           1 RES     
     218 CH2         27.2411    -1.1504    -9.9760 CH2           1 RES     
     219 CH2         27.1436    -2.0338   -11.2337 CH2           1 RES     
     220 CH2         27.2411    -1.1504   -12.4913 CH2           1 RES     
     221 CH2         27.1436    -2.0338   -13.7489 CH2           1 RES     
     222 CH2         27.2411    -1.1504   -15.0065 CH2           1 RES     
     223 CH2         27.1436    -2.0338   -16.2642 CH2           1 RES     
     224 CH2         27.2411    -1.1504   -17.5218 CH2           1 RES     
     225 O           27.3861     0.0000     0.0000 O             1 RES     
     226 C           27.2420    -1.2215     0.0000 C             1 RES     
     227 OA          27.1711    -1.9255     1.1322 OA            1 RES     
     228 H           27.2512    -1.3135     1.8675 H             1 RES     
     229 CH3         22.0185    20.7140     0.0278 CH3           1 RES     
     230 CH2         22.1087    19.8704    -1.1726 CH2           1 RES     
     231 CH2         22.0142    20.7542    -2.4303 CH2           1 RES     
     232 CH2         22.1087    19.8704    -3.6879 CH2           1 RES     
     233 CH2         22.0142    20.7542    -4.9455 CH2           1 RES     
     234 CH2         22.1087    19.8704    -6.2032 CH2           1 RES     
     235 CH2         22.0142    20.7542    -7.4608 CH2           1 RES     
     236 CH2         22.1087    19.8704    -8.7184 CH2           1 RES     
     237 CH2         22.0142    20.7542    -9.9760 CH2           1 RES     
     238 CH2         22.1087    19.8704   -11.2337 CH2           1 RES     
     239 CH2         22.0142    20.7542   -12.4913 CH2           1 RES     
     240 CH2         22.1087    19.8704   -13.7489 CH2           1 RES     
     241 CH2         22.0142    20.7542   -15.0065 CH2           1 RES     
     242 CH2         22.1087    19.8704   -16.2642 CH2           1 RES     
     243 CH2         22.0142    20.7542   -17.5218 CH2           1 RES     
     244 O           21.9089    21.9089     0.0000 O             1 RES     
     245 C           22.0303    20.6849     0.0000 C             1 RES     
     246 OA          22.1122    19.9822     1.1322 OA            1 RES     
     247 H           22.0591    20.5970     1.8675 H             1 RES     
     248 CH3         16.0966     4.3251     0.0278 CH3           1 RES     
     249 CH2         15.8718     3.5070    -1.1726 CH2           1 RES     
     250 CH2         16.1073     4.3640    -2.4303 CH2           1 RES     
     251 CH2         15.8718     3.5070    -3.6879 CH2           1 RES     
     252 CH2         16.1073     4.3640    -4.9455 CH2           1 RES     
     253 CH2         15.8718     3.5070    -6.2032 CH2           1 RES     
     254 CH2         16.1073     4.3640    -7.4608 CH2           1 RES     
     255 CH2         15.8718     3.5070    -8.7184 CH2           1 RES     
     256 CH2         16.1073     4.3640    -9.9760 CH2           1 RES     
     257 CH2         15.8718     3.5070   -11.2337 CH2           1 RES     
     258 CH2         16.1073     4.3640   -12.4913 CH2           1 RES     
     259 CH2         15.8718     3.5070   -13.7489 CH2           1 RES     
     260 CH2         16.1073     4.3640   -15.0065 CH2           1 RES     
     261 CH2         15.8718     3.5070   -16.2642 CH2           1 RES     
     262 CH2         16.1073     4.3640   -17.5218 CH2           1 RES     
     263 O           16.4317     5.4772     0.0000 O             1 RES     
     264 C           16.0969     4.2937     0.0000 C             1 RES     
     265 OA          15.9160     3.6097     1.1322 OA            1 RES     
     266 H           16.0915     4.2014     1.8675 H             1 RES     
     267 CH3         27.5611    26.1991     0.0278 CH3           1 RES     
     268 CH2         27.6974    25.3617    -1.1726 CH2           1 RES     
     269 CH2         27.5546    26.2389    -2.4303 CH2           1 RES     
     270 CH2         27.6974    25.3617    -3.6879 CH2           1 RES     
     271 CH2         27.5546    26.2389    -4.9455 CH2           1 RES     
     272 CH2         27.6974    25.3617    -6.2032 CH2           1 RES     
     273 CH2         27.5546    26.2389    -7.4608 CH2           1 RES     
     274 CH2         27.6974    25.3617    -8.7184 CH2           1 RES     
     275 CH2         27.5546    26.2389    -9.9760 CH2           1 RES     
     276 CH2         27.6974    25.3617   -11.2337 CH2           1 RES     
     277 CH2         27.5546    26.2389   -12.4913 CH2           1 RES     
     278 CH2         27.6974    25.3617   -13.7489 CH2           1 RES     
     279 CH2         27.5546    26.2389   -15.0065 CH2           1 RES     
     280 CH2         27.6974    25.3617   -16.2642 CH2           1 RES     
     281 CH2         27.5546    26.2389   -17.5218 CH2           1 RES     
     282 O           27.3861    27.3861     0.0000 O             1 RES     
     283 C           27.5745    26.1706     0.0000 C             1 RES     
     284 OA          27.6948    25.4734     1.1322 OA            1 RES     
     285 H           27.6081    26.0845     1.8675 H             1 RES     
     286 CH3         -0.3987     9.8227     0.0278 CH3           1 RES     
     287 CH2         -0.6686     9.0184    -1.1726 CH2           1 RES     
     288 CH2         -0.3858     9.8610    -2.4303 CH2           1 RES     
     289 CH2         -0.6686     9.0184    -3.6879 CH2           1 RES     
     290 CH2         -0.3858     9.8610    -4.9455 CH2           1 RES     
     291 CH2         -0.6686     9.0184    -6.2032 CH2           1 RES     
     292 CH2         -0.3858     9.8610    -7.4608 CH2           1 RES     
     293 CH2         -0.6686     9.0184    -8.7184 CH2           1 RES     
     294 CH2         -0.3858     9.8610    -9.9760 CH2           1 RES     
     295 CH2         -0.6686     9.0184   -11.2337 CH2           1 RES     
     296 CH2         -0.3858     9.8610   -12.4913 CH2           1 RES     
     297 CH2         -0.6686     9.0184   -13.7489 CH2           1 RES     
     298 CH2         -0.3858     9.8610   -15.0065 CH2           1 RES     
     299 CH2         -0.6686     9.0184   -16.2642 CH2           1 RES     
     300 CH2         -0.3858     9.8610   -17.5218 CH2           1 RES     
     301 O            0.0000    10.9545     0.0000 O             1 RES     
     302 C           -0.4001     9.7913     0.0000 C             1 RES     
     303 OA          -0.6187     9.1185     1.1322 OA            1 RES     
     304 H           -0.4106     9.6995     1.8675 H             1 RES     
     305 CH3         38.4530     9.7598     0.0278 CH3           1 RES     
     306 CH2         38.5451     8.9164    -1.1726 CH2           1 RES     
     307 CH2         38.4486     9.8000    -2.4303 CH2           1 RES     
     308 CH2         38.5451     8.9164    -3.6879 CH2           1 RES     
     309 CH2         38.4486     9.8000    -4.9455 CH2           1 RES     
     310 CH2         38.5451     8.9164    -6.2032 CH2           1 RES     
     311 CH2         38.4486     9.8000    -7.4608 CH2           1 RES     
     312 CH2         38.5451     8.9164    -8.7184 CH2           1 RES     
     313 CH2         38.4486     9.8000    -9.9760 CH2           1 RES     
     314 CH2         38.5451     8.9164   -11.2337 CH2           1 RES     
     315 CH2         38.4486     9.8000   -12.4913 CH2           1 RES     
     316 CH2         38.5451     8.9164   -13.7489 CH2           1 RES     
     317 CH2         38.4486     9.8000   -15.0065 CH2           1 RES     
     318 CH2         38.5451     8.9164   -16.2642 CH2           1 RES     
     319 CH2         38.4486     9.8000   -17.5218 CH2           1 RES     
     320 O           38.3406    10.9545     0.0000 O             1 RES     
     321 C           38.4649     9.7307     0.0000 C             1 RES     
     322 OA          38.5484     9.0282     1.1322 OA            1 RES     
     323 H           38.4939     9.6429     1.8675 H             1 RES     
     324 CH3         16.2055    -1.1784     0.0278 CH3           1 RES     
     325 CH2         16.0580    -2.0139    -1.1726 CH2           1 RES     
     326 CH2         16.2125    -1.1386    -2.4303 CH2           1 RES     
     327 CH2         16.0580    -2.0139    -3.6879 CH2           1 RES     
     328 CH2         16.2125    -1.1386    -4.9455 CH2           1 RES     
     329 CH2         16.0580    -2.0139    -6.2032 CH2           1 RES     
     330 CH2         16.2125    -1.1386    -7.4608 CH2           1 RES     
     331 CH2         16.0580    -2.0139    -8.7184 CH2           1 RES     
     332 CH2         16.2125    -1.1386    -9.9760 CH2           1 RES     
     333 CH2         16.0580    -2.0139   -11.2337 CH2           1 RES     
     334 CH2         16.2125    -1.1386   -12.4913 CH2           1 RES     
     335 CH2         16.0580    -2.0139   -13.7489 CH2           1 RES     
     336 CH2         16.2125    -1.1386   -15.0065 CH2           1 RES     
     337 CH2         16.0580    -2.0139   -16.2642 CH2           1 RES     
     338 CH2         16.2125    -1.1386   -17.5218 CH2           1 RES     
     339 O           16.4317     0.0000     0.0000 O             1 RES     
     340 C           16.2087    -1.2096     0.0000 C             1 RES     
     341 OA          16.0924    -1.9075     1.1322 OA            1 RES     
     342 H           16.2120    -1.3020     1.8675 H             1 RES     
     343 CH3         38.7821    37.2249     0.0278 CH3           1 RES     
     344 CH2         39.1060    36.4407    -1.1726 CH2           1 RES     
     345 CH2         38.7667    37.2622    -2.4303 CH2           1 RES     
     346 CH2         39.1060    36.4407    -3.6879 CH2           1 RES     
     347 CH2         38.7667    37.2622    -4.9455 CH2           1 RES     
     348 CH2         39.1060    36.4407    -6.2032 CH2           1 RES     
     349 CH2         38.7667    37.2622    -7.4608 CH2           1 RES     
     350 CH2         39.1060    36.4407    -8.7184 CH2           1 RES     
     351 CH2         38.7667    37.2622    -9.9760 CH2           1 RES     
     352 CH2         39.1060    36.4407   -11.2337 CH2           1 RES     
     353 CH2         38.7667    37.2622   -12.4913 CH2           1 RES     
     354 CH2         39.1060    36.4407   -13.7489 CH2           1 RES     
     355 CH2         38.7667    37.2622   -15.0065 CH2           1 RES     
     356 CH2         39.1060    36.4407   -16.2642 CH2           1 RES     
     357 CH2         38.7667    37.2622   -17.5218 CH2           1 RES     
     358 O           38.3406    38.3406     0.0000 O             1 RES     
     359 C           38.8016    37.2002     0.0000 C             1 RES     
     360 OA          39.0780    36.5490     1.1322 OA            1 RES     
     361 H           38.8540    37.1240     1.8675 H             1 RES     
     362 CH3         38.8302    26.2907     0.0278 CH3           1 RES     
     363 CH2         39.1878    25.5213    -1.1726 CH2           1 RES     
     364 CH2         38.8131    26.3273    -2.4303 CH2           1 RES     
     365 CH2         39.1878    25.5213    -3.6879 CH2           1 RES     
     366 CH2         38.8131    26.3273    -4.9455 CH2           1 RES     
     367 CH2         39.1878    25.5213    -6.2032 CH2           1 RES     
     368 CH2         38.8131    26.3273    -7.4608 CH2           1 RES     
     369 CH2         39.1878    25.5213    -8.7184 CH2           1 RES     
     370 CH2         38.8131    26.3273    -9.9760 CH2           1 RES     
     371 CH2         39.1878    25.5213   -11.2337 CH2           1 RES     
     372 CH2         38.8131    26.3273   -12.4913 CH2           1 RES     
     373 CH2         39.1878    25.5213   -13.7489 CH2           1 RES     
     374 CH2         38.8131    26.3273   -15.0065 CH2           1 RES     
     375 CH2         39.1878    25.5213   -16.2642 CH2           1 RES     
     376 CH2         38.8131    26.3273   -17.5218 CH2           1 RES     
     377 O           38.3406    27.3861     0.0000 O             1 RES     
     378 C           38.8507    26.2669     0.0000 C             1 RES     
     379 OA          39.1551    25.6282     1.1322 OA            1 RES     
     380 H           38.9063    26.1930     1.8675 H             1 RES     
     381 CH3          5.3856    15.2353     0.0278 CH3           1 RES     
     382 CH2          5.3335    14.3885    -1.1726 CH2           1 RES     
     383 CH2          5.3881    15.2756    -2.4303 CH2           1 RES     
     384 CH2          5.3335    14.3885    -3.6879 CH2           1 RES     
     385 CH2          5.3881    15.2756    -4.9455 CH2           1 RES     
     386 CH2          5.3335    14.3885    -6.2032 CH2           1 RES     
     387 CH2          5.3881    15.2756    -7.4608 CH2           1 RES     
     388 CH2          5.3335    14.3885    -8.7184 CH2           1 RES     
     389 CH2          5.3881    15.2756    -9.9760 CH2           1 RES     
     390 CH2          5.3335    14.3885   -11.2337 CH2           1 RES     
     391 CH2          5.3881    15.2756   -12.4913 CH2           1 RES     
     392 CH2          5.3335    14.3885   -13.7489 CH2           1 RES     
     393 CH2          5.3881    15.2756   -15.0065 CH2           1 RES     
     394 CH2          5.3335    14.3885   -16.2642 CH2           1 RES     
     395 CH2          5.3881    15.2756   -17.5218 CH2           1 RES     
     396 O            5.4772    16.4317     0.0000 O             1 RES     
     397 C            5.3924    15.2046     0.0000 C             1 RES     
     398 OA           5.3557    14.4981     1.1322 OA            1 RES     
     399 H            5.4061    15.1132     1.8675 H             1 RES     
     400 CH3          5.1227     4.3309     0.0278 CH3           1 RES     
     401 CH2          4.8841     3.5167    -1.1726 CH2           1 RES     
     402 CH2          5.1340     4.3697    -2.4303 CH2           1 RES     
     403 CH2          4.8841     3.5167    -3.6879 CH2           1 RES     
     404 CH2          5.1340     4.3697    -4.9455 CH2           1 RES     
     405 CH2          4.8841     3.5167    -6.2032 CH2           1 RES     
     406 CH2          5.1340     4.3697    -7.4608 CH2           1 RES     
     407 CH2          4.8841     3.5167    -8.7184 CH2           1 RES     
     408 CH2          5.1340     4.3697    -9.9760 CH2           1 RES     
     409 CH2          4.8841     3.5167   -11.2337 CH2           1 RES     
     410 CH2          5.1340     4.3697   -12.4913 CH2           1 RES     
     411 CH2          4.8841     3.5167   -13.7489 CH2           1 RES     
     412 CH2          5.1340     4.3697   -15.0065 CH2           1 RES     
     413 CH2          4.8841     3.5167   -16.2642 CH2           1 RES     
     414 CH2          5.1340     4.3697   -17.5218 CH2           1 RES     
     415 O            5.4772     5.4772     0.0000 O             1 RES     
     416 C            5.1224     4.2995     0.0000 C             1 RES     
     417 OA           4.9300     3.6187     1.1322 OA            1 RES     
     418 H            5.1155     4.2073     1.8675 H             1 RES     
     419 CH3         37.9637    -1.1392     0.0278 CH3           1 RES     
     420 CH2         37.7093    -1.9485    -1.1726 CH2           1 RES     
     421 CH2         37.9758    -1.1006    -2.4303 CH2           1 RES     
     422 CH2         37.7093    -1.9485    -3.6879 CH2           1 RES     
     423 CH2         37.9758    -1.1006    -4.9455 CH2           1 RES     
     424 CH2         37.7093    -1.9485    -6.2032 CH2           1 RES     
     425 CH2         37.9758    -1.1006    -7.4608 CH2           1 RES     
     426 CH2         37.7093    -1.9485    -8.7184 CH2           1 RES     
     427 CH2         37.9758    -1.1006    -9.9760 CH2           1 RES     
     428 CH2         37.7093    -1.9485   -11.2337 CH2           1 RES     
     429 CH2         37.9758    -1.1006   -12.4913 CH2           1 RES     
     430 CH2         37.7093    -1.9485   -13.7489 CH2           1 RES     
     431 CH2         37.9758    -1.1006   -15.0065 CH2           1 RES     
     432 CH2         37.7093    -1.9485   -16.2642 CH2           1 RES     
     433 CH2         37.9758    -1.1006   -17.5218 CH2           1 RES     
     434 O           38.3406     0.0000     0.0000 O             1 RES     
     435 C           37.9629    -1.1706     0.0000 C             1 RES     
     436 OA          37.7572    -1.8475     1.1322 OA            1 RES     
     437 H           37.9542    -1.2626     1.8675 H             1 RES     
     438 CH3         27.8528     9.8490     0.0278 CH3           1 RES     
     439 CH2         28.1943     9.0724    -1.1726 CH2           1 RES     
     440 CH2         27.8365     9.8860    -2.4303 CH2           1 RES     
     441 CH2         28.1943     9.0724    -3.6879 CH2           1 RES     
     442 CH2         27.8365     9.8860    -4.9455 CH2           1 RES     
     443 CH2         28.1943     9.0724    -6.2032 CH2           1 RES     
     444 CH2         27.8365     9.8860    -7.4608 CH2           1 RES     
     445 CH2         28.1943     9.0724    -8.7184 CH2           1 RES     
     446 CH2         27.8365     9.8860    -9.9760 CH2           1 RES     
     447 CH2         28.1943     9.0724   -11.2337 CH2           1 RES     
     448 CH2         27.8365     9.8860   -12.4913 CH2           1 RES     
     449 CH2         28.1943     9.0724   -13.7489 CH2           1 RES     
     450 CH2         27.8365     9.8860   -15.0065 CH2           1 RES     
     451 CH2         28.1943     9.0724   -16.2642 CH2           1 RES     
     452 CH2         27.8365     9.8860   -17.5218 CH2           1 RES     
     453 O           27.3861    10.9545     0.0000 O             1 RES     
     454 C           27.8728     9.8248     0.0000 C             1 RES     
     455 OA          28.1639     9.1800     1.1322 OA            1 RES     
     456 H           27.9269     9.7498     1.8675 H             1 RES     
     457 CH3         10.9858    -1.1995     0.0278 CH3           1 RES     
     458 CH2         11.0207    -2.0472    -1.1726 CH2           1 RES     
     459 CH2         10.9842    -1.1591    -2.4303 CH2           1 RES     
     460 CH2         11.0207    -2.0472    -3.6879 CH2           1 RES     
     461 CH2         10.9842    -1.1591    -4.9455 CH2           1 RES     
     462 CH2         11.0207    -2.0472    -6.2032 CH2           1 RES     
     463 CH2         10.9842    -1.1591    -7.4608 CH2           1 RES     
     464 CH2         11.0207    -2.0472    -8.7184 CH2           1 RES     
     465 CH2         10.9842    -1.1591    -9.9760 CH2           1 RES     
     466 CH2         11.0207    -2.0472   -11.2337 CH2           1 RES     
     467 CH2         10.9842    -1.1591   -12.4913 CH2           1 RES     
     468 CH2         11.0207    -2.0472   -13.7489 CH2           1 RES     
     469 CH2         10.9842    -1.1591   -15.0065 CH2           1 RES     
     470 CH2         11.0207    -2.0472   -16.2642 CH2           1 RES     
     471 CH2         10.9842    -1.1591   -17.5218 CH2           1 RES     
     472 O           10.9545     0.0000     0.0000 O             1 RES     
     473 C           10.9957    -1.2293     0.0000 C             1 RES     
     474 OA          11.0315    -1.9359     1.1322 OA            1 RES     
     475 H           11.0187    -1.3189     1.8675 H             1 RES     
     476 CH3         21.5838    31.7083     0.0278 CH3           1 RES     
     477 CH2         21.3662    30.8883    -1.1726 CH2           1 RES     
     478 CH2         21.5942    31.7474    -2.4303 CH2           1 RES     
     479 CH2         21.3662    30.8883    -3.6879 CH2           1 RES     
     480 CH2         21.5942    31.7474    -4.9455 CH2           1 RES     
     481 CH2         21.3662    30.8883    -6.2032 CH2           1 RES     
     482 CH2         21.5942    31.7474    -7.4608 CH2           1 RES     
     483 CH2         21.3662    30.8883    -8.7184 CH2           1 RES     
     484 CH2         21.5942    31.7474    -9.9760 CH2           1 RES     
     485 CH2         21.3662    30.8883   -11.2337 CH2           1 RES     
     486 CH2         21.5942    31.7474   -12.4913 CH2           1 RES     
     487 CH2         21.3662    30.8883   -13.7489 CH2           1 RES     
     488 CH2         21.5942    31.7474   -15.0065 CH2           1 RES     
     489 CH2         21.3662    30.8883   -16.2642 CH2           1 RES     
     490 CH2         21.5942    31.7474   -17.5218 CH2           1 RES     
     491 O           21.9089    32.8634     0.0000 O             1 RES     
     492 C           21.5844    31.6769     0.0000 C             1 RES     
     493 OA          21.4094    30.9914     1.1322 OA            1 RES     
     494 H           21.5798    31.5846     1.8675 H             1 RES     
     495 CH3          5.0202    20.7995     0.0278 CH3           1 RES     
     496 CH2          4.7088    20.0103    -1.1726 CH2           1 RES     
     497 CH2          5.0350    20.8370    -2.4303 CH2           1 RES     
     498 CH2          4.7088    20.0103    -3.6879 CH2           1 RES     
     499 CH2          5.0350    20.8370    -4.9455 CH2           1 RES     
     500 CH2          4.7088    20.0103    -6.2032 CH2           1 RES     
     501 CH2          5.0350    20.8370    -7.4608 CH2           1 RES     
     502 CH2          4.7088    20.0103    -8.7184 CH2           1 RES     
     503 CH2          5.0350    20.8370    -9.9760 CH2           1 RES     
     504 CH2          4.7088    20.0103   -11.2337 CH2           1 RES     
     505 CH2          5.0350    20.8370   -12.4913 CH2           1 RES     
     506 CH2          4.7088    20.0103   -13.7489 CH2           1 RES     
     507 CH2          5.0350    20.8370   -15.0065 CH2           1 RES     
     508 CH2          4.7088    20.0103   -16.2642 CH2           1 RES     
     509 CH2          5.0350    20.8370   -17.5218 CH2           1 RES     
     510 O            5.4772    21.9089     0.0000 O             1 RES     
     511 C            5.0172    20.7682     0.0000 C             1 RES     
     512 OA           4.7638    20.1076     1.1322 OA            1 RES     
     513 H            5.0019    20.6770     1.8675 H             1 RES     
     514 CH3         27.0703    37.1830     0.0278 CH3           1 RES     
     515 CH2         26.8592    36.3613    -1.1726 CH2           1 RES     
     516 CH2         27.0803    37.2221    -2.4303 CH2           1 RES     
     517 CH2         26.8592    36.3613    -3.6879 CH2           1 RES     
     518 CH2         27.0803    37.2221    -4.9455 CH2           1 RES     
     519 CH2         26.8592    36.3613    -6.2032 CH2           1 RES     
     520 CH2         27.0803    37.2221    -7.4608 CH2           1 RES     
     521 CH2         26.8592    36.3613    -8.7184 CH2           1 RES     
     522 CH2         27.0803    37.2221    -9.9760 CH2           1 RES     
     523 CH2         26.8592    36.3613   -11.2337 CH2           1 RES     
     524 CH2         27.0803    37.2221   -12.4913 CH2           1 RES     
     525 CH2         26.8592    36.3613   -13.7489 CH2           1 RES     
     526 CH2         27.0803    37.2221   -15.0065 CH2           1 RES     
     527 CH2         26.8592    36.3613   -16.2642 CH2           1 RES     
     528 CH2         27.0803    37.2221   -17.5218 CH2           1 RES     
     529 O           27.3861    38.3406     0.0000 O             1 RES     
     530 C           27.0712    37.1516     0.0000 C             1 RES     
     531 OA          26.9017    36.4647     1.1322 OA            1 RES     
     532 H           27.0673    37.0592     1.8675 H             1 RES     
     533 CH3          0.1051    -1.1953     0.0278 CH3           1 RES     
     534 CH2          0.1920    -2.0392    -1.1726 CH2           1 RES     
     535 CH2          0.1009    -1.1551    -2.4303 CH2           1 RES     
     536 CH2          0.1920    -2.0392    -3.6879 CH2           1 RES     
     537 CH2          0.1009    -1.1551    -4.9455 CH2           1 RES     
     538 CH2          0.1920    -2.0392    -6.2032 CH2           1 RES     
     539 CH2          0.1009    -1.1551    -7.4608 CH2           1 RES     
     540 CH2          0.1920    -2.0392    -8.7184 CH2           1 RES     
     541 CH2          0.1009    -1.1551    -9.9760 CH2           1 RES     
     542 CH2          0.1920    -2.0392   -11.2337 CH2           1 RES     
     543 CH2          0.1009    -1.1551   -12.4913 CH2           1 RES     
     544 CH2          0.1920    -2.0392   -13.7489 CH2           1 RES     
     545 CH2          0.1009    -1.1551   -15.0065 CH2           1 RES     
     546 CH2          0.1920    -2.0392   -16.2642 CH2           1 RES     
     547 CH2          0.1009    -1.1551   -17.5218 CH2           1 RES     
     548 O            0.0000     0.0000     0.0000 O             1 RES     
     549 C            0.1168    -1.2244     0.0000 C             1 RES     
     550 OA           0.1960    -1.9275     1.1322 OA            1 RES     
     551 H            0.1452    -1.3124     1.8675 H             1 RES     
     552 CH3         33.1440    -1.1666     0.0278 CH3           1 RES     
     553 CH2         33.3547    -1.9884    -1.1726 CH2           1 RES     
     554 CH2         33.1340    -1.1275    -2.4303 CH2           1 RES     
     555 CH2         33.3547    -1.9884    -3.6879 CH2           1 RES     
     556 CH2         33.1340    -1.1275    -4.9455 CH2           1 RES     
     557 CH2         33.3547    -1.9884    -6.2032 CH2           1 RES     
     558 CH2         33.1340    -1.1275    -7.4608 CH2           1 RES     
     559 CH2         33.3547    -1.9884    -8.7184 CH2           1 RES     
     560 CH2         33.1340    -1.1275    -9.9760 CH2           1 RES     
     561 CH2         33.3547    -1.9884   -11.2337 CH2           1 RES     
     562 CH2         33.1340    -1.1275   -12.4913 CH2           1 RES     
     563 CH2         33.3547    -1.9884   -13.7489 CH2           1 RES     
     564 CH2         33.1340    -1.1275   -15.0065 CH2           1 RES     
     565 CH2         33.3547    -1.9884   -16.2642 CH2           1 RES     
     566 CH2         33.1340    -1.1275   -17.5218 CH2           1 RES     
     567 O           32.8634     0.0000     0.0000 O             1 RES     
     568 C           33.1599    -1.1937     0.0000 C             1 RES     
     569 OA          33.3421    -1.8773     1.1322 OA            1 RES     
     570 H           33.2010    -1.2765     1.8675 H             1 RES     
     571 CH3         21.6229    26.2208     0.0278 CH3           1 RES     
     572 CH2         21.4331    25.3939    -1.1726 CH2           1 RES     
     573 CH2         21.6320    26.2602    -2.4303 CH2           1 RES     
     574 CH2         21.4331    25.3939    -3.6879 CH2           1 RES     
     575 CH2         21.6320    26.2602    -4.9455 CH2           1 RES     
     576 CH2         21.4331    25.3939    -6.2032 CH2           1 RES     
     577 CH2         21.6320    26.2602    -7.4608 CH2           1 RES     
     578 CH2         21.4331    25.3939    -8.7184 CH2           1 RES     
     579 CH2         21.6320    26.2602    -9.9760 CH2           1 RES     
     580 CH2         21.4331    25.3939   -11.2337 CH2           1 RES     
     581 CH2         21.6320    26.2602   -12.4913 CH2           1 RES     
     582 CH2         21.4331    25.3939   -13.7489 CH2           1 RES     
     583 CH2         21.6320    26.2602   -15.0065 CH2           1 RES     
     584 CH2         21.4331    25.3939   -16.2642 CH2           1 RES     
     585 CH2         21.6320    26.2602   -17.5218 CH2           1 RES     
     586 O           21.9089    27.3861     0.0000 O             1 RES     
     587 C           21.6246    26.1894     0.0000 C             1 RES     
     588 OA          21.4729    25.4984     1.1322 OA            1 RES     
     589 H           21.6232    26.0970     1.8675 H             1 RES     
     590 CH3          5.4325    26.1871     0.0278 CH3           1 RES     
     591 CH2          5.4135    25.3389    -1.1726 CH2           1 RES     
     592 CH2          5.4334    26.2275    -2.4303 CH2           1 RES     
     593 CH2          5.4135    25.3389    -3.6879 CH2           1 RES     
     594 CH2          5.4334    26.2275    -4.9455 CH2           1 RES     
     595 CH2          5.4135    25.3389    -6.2032 CH2           1 RES     
     596 CH2          5.4334    26.2275    -7.4608 CH2           1 RES     
     597 CH2          5.4135    25.3389    -8.7184 CH2           1 RES     
     598 CH2          5.4334    26.2275    -9.9760 CH2           1 RES     
     599 CH2          5.4135    25.3389   -11.2337 CH2           1 RES     
     600 CH2          5.4334    26.2275   -12.4913 CH2           1 RES     
     601 CH2          5.4135    25.3389   -13.7489 CH2           1 RES     
     602 CH2          5.4334    26.2275   -15.0065 CH2           1 RES     
     603 CH2          5.4135    25.3389   -16.2642 CH2           1 RES     
     604 CH2          5.4334    26.2275   -17.5218 CH2           1 RES     
     605 O            5.4772    27.3861     0.0000 O             1 RES     
     606 C            5.4404    26.1567     0.0000 C             1 RES     
     607 OA           5.4314    25.4492     1.1322 OA            1 RES     
     608 H            5.4577    26.0658     1.8675 H             1 RES     
     609 CH3         33.0626     9.7712     0.0278 CH3           1 RES     
     610 CH2         33.2160     8.9368    -1.1726 CH2           1 RES     
     611 CH2         33.0553     9.8110    -2.4303 CH2           1 RES     
     612 CH2         33.2160     8.9368    -3.6879 CH2           1 RES     
     613 CH2         33.0553     9.8110    -4.9455 CH2           1 RES     
     614 CH2         33.2160     8.9368    -6.2032 CH2           1 RES     
     615 CH2         33.0553     9.8110    -7.4608 CH2           1 RES     
     616 CH2         33.2160     8.9368    -8.7184 CH2           1 RES     
     617 CH2         33.0553     9.8110    -9.9760 CH2           1 RES     
     618 CH2         33.2160     8.9368   -11.2337 CH2           1 RES     
     619 CH2         33.0553     9.8110   -12.4913 CH2           1 RES     
     620 CH2         33.2160     8.9368   -13.7489 CH2           1 RES     
     621 CH2         33.0553     9.8110   -15.0065 CH2           1 RES     
     622 CH2         33.2160     8.9368   -16.2642 CH2           1 RES     
     623 CH2         33.0553     9.8110   -17.5218 CH2           1 RES     
     624 O           32.8634    10.9545     0.0000 O             1 RES     
     625 C           33.0765     9.7431     0.0000 C             1 RES     
     626 OA          33.2111     9.0485     1.1322 OA            1 RES     
     627 H           33.1119     9.6576     1.8675 H             1 RES     
     628 CH3         -0.5954    20.8671     0.0278 CH3           1 RES     
     629 CH2         -1.0053    20.1243    -1.1726 CH2           1 RES     
     630 CH2         -0.5759    20.9025    -2.4303 CH2           1 RES     
     631 CH2         -1.0053    20.1243    -3.6879 CH2           1 RES     
     632 CH2         -0.5759    20.9025    -4.9455 CH2           1 RES     
     633 CH2         -1.0053    20.1243    -6.2032 CH2           1 RES     
     634 CH2         -0.5759    20.9025    -7.4608 CH2           1 RES     
     635 CH2         -1.0053    20.1243    -8.7184 CH2           1 RES     
     636 CH2         -0.5759    20.9025    -9.9760 CH2           1 RES     
     637 CH2         -1.0053    20.1243   -11.2337 CH2           1 RES     
     638 CH2         -0.5759    20.9025   -12.4913 CH2           1 RES     
     639 CH2         -1.0053    20.1243   -13.7489 CH2           1 RES     
     640 CH2         -0.5759    20.9025   -15.0065 CH2           1 RES     
     641 CH2         -1.0053    20.1243   -16.2642 CH2           1 RES     
     642 CH2         -0.5759    20.9025   -17.5218 CH2           1 RES     
     643 O            0.0000    21.9089     0.0000 O             1 RES     
     644 C           -0.6024    20.8365     0.0000 C             1 RES     
     645 OA          -0.9383    20.2138     1.1322 OA            1 RES     
     646 H           -0.6292    20.7480     1.8675 H             1 RES     
     647 CH3         32.4675     4.3445     0.0278 CH3           1 RES     
     648 CH2         32.1997     3.5395    -1.1726 CH2           1 RES     
     649 CH2         32.4803     4.3828    -2.4303 CH2           1 RES     
     650 CH2         32.1997     3.5395    -3.6879 CH2           1 RES     
     651 CH2         32.4803     4.3828    -4.9455 CH2           1 RES     
     652 CH2         32.1997     3.5395    -6.2032 CH2           1 RES     
     653 CH2         32.4803     4.3828    -7.4608 CH2           1 RES     
     654 CH2         32.1997     3.5395    -8.7184 CH2           1 RES     
     655 CH2         32.4803     4.3828    -9.9760 CH2           1 RES     
     656 CH2         32.1997     3.5395   -11.2337 CH2           1 RES     
     657 CH2         32.4803     4.3828   -12.4913 CH2           1 RES     
     658 CH2         32.1997     3.5395   -13.7489 CH2           1 RES     
     659 CH2         32.4803     4.3828   -15.0065 CH2           1 RES     
     660 CH2         32.1997     3.5395   -16.2642 CH2           1 RES     
     661 CH2         32.4803     4.3828   -17.5218 CH2           1 RES     
     662 O           32.8634     5.4772     0.0000 O             1 RES     
     663 C           32.4662     4.3131     0.0000 C             1 RES     
     664 OA          32.2492     3.6397     1.1322 OA            1 RES     
     665 H           32.4559     4.2212     1.8675 H             1 RES     
     666 CH3          5.0016    -1.1016     0.0278 CH3           1 RES     
     667 CH2          4.6769    -1.8854    -1.1726 CH2           1 RES     
     668 CH2          5.0170    -1.0643    -2.4303 CH2           1 RES     
     669 CH2          4.6769    -1.8854    -3.6879 CH2           1 RES     
     670 CH2          5.0170    -1.0643    -4.9455 CH2           1 RES     
     671 CH2          4.6769    -1.8854    -6.2032 CH2           1 RES     
     672 CH2          5.0170    -1.0643    -7.4608 CH2           1 RES     
     673 CH2          4.6769    -1.8854    -8.7184 CH2           1 RES     
     674 CH2          5.0170    -1.0643    -9.9760 CH2           1 RES     
     675 CH2          4.6769    -1.8854   -11.2337 CH2           1 RES     
     676 CH2          5.0170    -1.0643   -12.4913 CH2           1 RES     
     677 CH2          4.6769    -1.8854   -13.7489 CH2           1 RES     
     678 CH2          5.0170    -1.0643   -15.0065 CH2           1 RES     
     679 CH2          4.6769    -1.8854   -16.2642 CH2           1 RES     
     680 CH2          5.0170    -1.0643   -17.5218 CH2           1 RES     
     681 O            5.4772     0.0000     0.0000 O             1 RES     
     682 C            4.9980    -1.1328     0.0000 C             1 RES     
     683 OA           4.7335    -1.7890     1.1322 OA            1 RES     
     684 H            4.9812    -1.2237     1.8675 H             1 RES     
     685 CH3         -0.0733     4.2796     0.0278 CH3           1 RES     
     686 CH2         -0.1125     3.4321    -1.1726 CH2           1 RES     
     687 CH2         -0.0715     4.3199    -2.4303 CH2           1 RES     
     688 CH2         -0.1125     3.4321    -3.6879 CH2           1 RES     
     689 CH2         -0.0715     4.3199    -4.9455 CH2           1 RES     
     690 CH2         -0.1125     3.4321    -6.2032 CH2           1 RES     
     691 CH2         -0.0715     4.3199    -7.4608 CH2           1 RES     
     692 CH2         -0.1125     3.4321    -8.7184 CH2           1 RES     
     693 CH2         -0.0715     4.3199    -9.9760 CH2           1 RES     
     694 CH2         -0.1125     3.4321   -11.2337 CH2           1 RES     
     695 CH2         -0.0715     4.3199   -12.4913 CH2           1 RES     
     696 CH2         -0.1125     3.4321   -13.7489 CH2           1 RES     
     697 CH2         -0.0715     4.3199   -15.0065 CH2           1 RES     
     698 CH2         -0.1125     3.4321   -16.2642 CH2           1 RES     
     699 CH2         -0.0715     4.3199   -17.5218 CH2           1 RES     
     700 O            0.0000     5.4772     0.0000 O             1 RES     
     701 C           -0.0661     4.2490     0.0000 C             1 RES     
     702 OA          -0.0920     3.5420     1.1322 OA            1 RES     
     703 H           -0.0510     4.1578     1.8675 H             1 RES     
     704 CH3         27.4446    20.7104     0.0278 CH3           1 RES     
     705 CH2         27.4986    19.8638    -1.1726 CH2           1 RES     
     706 CH2         27.4420    20.7508    -2.4303 CH2           1 RES     
     707 CH2         27.4986    19.8638    -3.6879 CH2           1 RES     
     708 CH2         27.4420    20.7508    -4.9455 CH2           1 RES     
     709 CH2         27.4986    19.8638    -6.2032 CH2           1 RES     
     710 CH2         27.4420    20.7508    -7.4608 CH2           1 RES     
     711 CH2         27.4986    19.8638    -8.7184 CH2           1 RES     
     712 CH2         27.4420    20.7508    -9.9760 CH2           1 RES     
     713 CH2         27.4986    19.8638   -11.2337 CH2           1 RES     
     714 CH2         27.4420    20.7508   -12.4913 CH2           1 RES     
     715 CH2         27.4986    19.8638   -13.7489 CH2           1 RES     
     716 CH2         27.4420    20.7508   -15.0065 CH2           1 RES     
     717 CH2         27.4986    19.8638   -16.2642 CH2           1 RES     
     718 CH2         27.4420    20.7508   -17.5218 CH2           1 RES     
     719 O           27.3861    21.9089     0.0000 O             1 RES     
     720 C           27.4552    20.6808     0.0000 C             1 RES     
     721 OA          27.5069    19.9752     1.1322 OA            1 RES     
     722 H           27.4802    20.5918     1.8675 H             1 RES     
     723 CH3         10.5589    31.7305     0.0278 CH3           1 RES     
     724 CH2         10.2913    30.9254    -1.1726 CH2           1 RES     
     725 CH2         10.5717    31.7689    -2.4303 CH2           1 RES     
     726 CH2         10.2913    30.9254    -3.6879 CH2           1 RES     
     727 CH2         10.5717    31.7689    -4.9455 CH2           1 RES     
     728 CH2         10.2913    30.9254    -6.2032 CH2           1 RES     
     729 CH2         10.5717    31.7689    -7.4608 CH2           1 RES     
     730 CH2         10.2913    30.9254    -8.7184 CH2           1 RES     
     731 CH2         10.5717    31.7689    -9.9760 CH2           1 RES     
     732 CH2         10.2913    30.9254   -11.2337 CH2           1 RES     
     733 CH2         10.5717    31.7689   -12.4913 CH2           1 RES     
     734 CH2         10.2913    30.9254   -13.7489 CH2           1 RES     
     735 CH2         10.5717    31.7689   -15.0065 CH2           1 RES     
     736 CH2         10.2913    30.9254   -16.2642 CH2           1 RES     
     737 CH2         10.5717    31.7689   -17.5218 CH2           1 RES     
     738 O           10.9545    32.8634     0.0000 O             1 RES     
     739 C           10.5576    31.6991     0.0000 C             1 RES     
     740 OA          10.3408    31.0257     1.1322 OA            1 RES     
     741 H           10.5474    31.6072     1.8675 H             1 RES     
     742 CH3          5.9683     9.8596     0.0278 CH3           1 RES     
     743 CH2          6.3270     9.0908    -1.1726 CH2           1 RES     
     744 CH2          5.9512     9.8963    -2.4303 CH2           1 RES     
     745 CH2          6.3270     9.0908    -3.6879 CH2           1 RES     
     746 CH2          5.9512     9.8963    -4.9455 CH2           1 RES     
     747 CH2          6.3270     9.0908    -6.2032 CH2           1 RES     
     748 CH2          5.9512     9.8963    -7.4608 CH2           1 RES     
     749 CH2          6.3270     9.0908    -8.7184 CH2           1 RES     
     750 CH2          5.9512     9.8963    -9.9760 CH2           1 RES     
     751 CH2          6.3270     9.0908   -11.2337 CH2           1 RES     
     752 CH2          5.9512     9.8963   -12.4913 CH2           1 RES     
     753 CH2          6.3270     9.0908   -13.7489 CH2           1 RES     
     754 CH2          5.9512     9.8963   -15.0065 CH2           1 RES     
     755 CH2          6.3270     9.0908   -16.2642 CH2           1 RES     
     756 CH2          5.9512     9.8963   -17.5218 CH2           1 RES     
     757 O            5.4772    10.9545     0.0000 O             1 RES     
     758 C            5.9889     9.8359     0.0000 C             1 RES     
     759 OA           6.2941     9.1977     1.1322 OA            1 RES     
     760 H            6.0446     9.7621     1.8675 H             1 RES     
     761 CH3         10.6773     4.3098     0.0278 CH3           1 RES     
     762 CH2         10.4937     3.4815    -1.1726 CH2           1 RES     
     763 CH2         10.6860     4.3492    -2.4303 CH2           1 RES     
     764 CH2         10.4937     3.4815    -3.6879 CH2           1 RES     
     765 CH2         10.6860     4.3492    -4.9455 CH2           1 RES     
     766 CH2         10.4937     3.4815    -6.2032 CH2           1 RES     
     767 CH2         10.6860     4.3492    -7.4608 CH2           1 RES     
     768 CH2         10.4937     3.4815    -8.7184 CH2           1 RES     
     769 CH2         10.6860     4.3492    -9.9760 CH2           1 RES     
     770 CH2         10.4937     3.4815   -11.2337 CH2           1 RES     
     771 CH2         10.6860     4.3492   -12.4913 CH2           1 RES     
     772 CH2         10.4937     3.4815   -13.7489 CH2           1 RES     
     773 CH2         10.6860     4.3492   -15.0065 CH2           1 RES     
     774 CH2         10.4937     3.4815   -16.2642 CH2           1 RES     
     775 CH2         10.6860     4.3492   -17.5218 CH2           1 RES     
     776 O           10.9545     5.4772     0.0000 O             1 RES     
     777 C           10.6792     4.2784     0.0000 C             1 RES     
     778 OA          10.5327     3.5863     1.1322 OA            1 RES     
     779 H           10.6784     4.1860     1.8675 H             1 RES     
     780 CH3         21.9098    -1.1999     0.0278 CH3           1 RES     
     781 CH2         21.9231    -2.0482    -1.1726 CH2           1 RES     
     782 CH2         21.9091    -1.1595    -2.4303 CH2           1 RES     
     783 CH2         21.9231    -2.0482    -3.6879 CH2           1 RES     
     784 CH2         21.9091    -1.1595    -4.9455 CH2           1 RES     
     785 CH2         21.9231    -2.0482    -6.2032 CH2           1 RES     
     786 CH2         21.9091    -1.1595    -7.4608 CH2           1 RES     
     787 CH2         21.9231    -2.0482    -8.7184 CH2           1 RES     
     788 CH2         21.9091    -1.1595    -9.9760 CH2           1 RES     
     789 CH2         21.9231    -2.0482   -11.2337 CH2           1 RES     
     790 CH2         21.9091    -1.1595   -12.4913 CH2           1 RES     
     791 CH2         21.9231    -2.0482   -13.7489 CH2           1 RES     
     792 CH2         21.9091    -1.1595   -15.0065 CH2           1 RES     
     793 CH2         21.9231    -2.0482   -16.2642 CH2           1 RES     
     794 CH2         21.9091    -1.1595   -17.5218 CH2           1 RES     
     795 O           21.9089     0.0000     0.0000 O             1 RES     
     796 C           21.9189    -1.2300     0.0000 C             1 RES     
     797 OA          21.9367    -1.9372     1.1322 OA            1 RES     
     798 H           21.9396    -1.3201     1.8675 H             1 RES     
     799 CH3         21.7802    37.1476     0.0278 CH3           1 RES     
     800 CH2         21.7019    36.3028    -1.1726 CH2           1 RES     
     801 CH2         21.7840    37.1878    -2.4303 CH2           1 RES     
     802 CH2         21.7019    36.3028    -3.6879 CH2           1 RES     
     803 CH2         21.7840    37.1878    -4.9455 CH2           1 RES     
     804 CH2         21.7019    36.3028    -6.2032 CH2           1 RES     
     805 CH2         21.7840    37.1878    -7.4608 CH2           1 RES     
     806 CH2         21.7019    36.3028    -8.7184 CH2           1 RES     
     807 CH2         21.7840    37.1878    -9.9760 CH2           1 RES     
     808 CH2         21.7019    36.3028   -11.2337 CH2           1 RES     
     809 CH2         21.7840    37.1878   -12.4913 CH2           1 RES     
     810 CH2         21.7019    36.3028   -13.7489 CH2           1 RES     
     811 CH2         21.7840    37.1878   -15.0065 CH2           1 RES     
     812 CH2         21.7019    36.3028   -16.2642 CH2           1 RES     
     813 CH2         21.7840    37.1878   -17.5218 CH2           1 RES     
     814 O           21.9089    38.3406     0.0000 O             1 RES     
     815 C           21.7860    37.1167     0.0000 C             1 RES     
     816 OA          21.7274    36.4117     1.1322 OA            1 RES     
     817 H           21.7969    37.0249     1.8675 H             1 RES     
     818 CH3         16.1065    20.7539     0.0278 CH3           1 RES     
     819 CH2         15.8888    19.9339    -1.1726 CH2           1 RES     
     820 CH2         16.1168    20.7930    -2.4303 CH2           1 RES     
     821 CH2         15.8888    19.9339    -3.6879 CH2           1 RES     
     822 CH2         16.1168    20.7930    -4.9455 CH2           1 RES     
     823 CH2         15.8888    19.9339    -6.2032 CH2           1 RES     
     824 CH2         16.1168    20.7930    -7.4608 CH2           1 RES     
     825 CH2         15.8888    19.9339    -8.7184 CH2           1 RES     
     826 CH2         16.1168    20.7930    -9.9760 CH2           1 RES     
     827 CH2         15.8888    19.9339   -11.2337 CH2           1 RES     
     828 CH2         16.1168    20.7930   -12.4913 CH2           1 RES     
     829 CH2         15.8888    19.9339   -13.7489 CH2           1 RES     
     830 CH2         16.1168    20.7930   -15.0065 CH2           1 RES     
     831 CH2         15.8888    19.9339   -16.2642 CH2           1 RES     
     832 CH2         16.1168    20.7930   -17.5218 CH2           1 RES     
     833 O           16.4317    21.9089     0.0000 O             1 RES     
     834 C           16.1071    20.7225     0.0000 C             1 RES     
     835 OA          15.9321    20.0370     1.1322 OA            1 RES     
     836 H           16.1025    20.6302     1.8675 H             1 RES     
     837 CH3          0.1470    31.6725     0.0278 CH3           1 RES     
     838 CH2          0.2635    30.8321    -1.1726 CH2           1 RES     
     839 CH2          0.1414    31.7125    -2.4303 CH2           1 RES     
     840 CH2          0.2635    30.8321    -3.6879 CH2           1 RES     
     841 CH2          0.1414    31.7125    -4.9455 CH2           1 RES     
     842 CH2          0.2635    30.8321    -6.2032 CH2           1 RES     
     843 CH2          0.1414    31.7125    -7.4608 CH2           1 RES     
     844 CH2          0.2635    30.8321    -8.7184 CH2           1 RES     
     845 CH2          0.1414    31.7125    -9.9760 CH2           1 RES     
     846 CH2          0.2635    30.8321   -11.2337 CH2           1 RES     
     847 CH2          0.1414    31.7125   -12.4913 CH2           1 RES     
     848 CH2          0.2635    30.8321   -13.7489 CH2           1 RES     
     849 CH2          0.1414    31.7125   -15.0065 CH2           1 RES     
     850 CH2          0.2635    30.8321   -16.2642 CH2           1 RES     
     851 CH2          0.1414    31.7125   -17.5218 CH2           1 RES     
     852 O            0.0000    32.8634     0.0000 O             1 RES     
     853 C            0.1597    31.6438     0.0000 C             1 RES     
     854 OA           0.2635    30.9439     1.1322 OA            1 RES     
     855 H            0.1912    31.5568     1.8675 H             1 RES     
     856 CH3         10.4331    20.8282     0.0278 CH3           1 RES     
     857 CH2         10.0760    20.0586    -1.1726 CH2           1 RES     
     858 CH2         10.4501    20.8648    -2.4303 CH2           1 RES     
     859 CH2         10.0760    20.0586    -3.6879 CH2           1 RES     
     860 CH2         10.4501    20.8648    -4.9455 CH2           1 RES     
     861 CH2         10.0760    20.0586    -6.2032 CH2           1 RES     
     862 CH2         10.4501    20.8648    -7.4608 CH2           1 RES     
     863 CH2         10.0760    20.0586    -8.7184 CH2           1 RES     
     864 CH2         10.4501    20.8648    -9.9760 CH2           1 RES     
     865 CH2         10.0760    20.0586   -11.2337 CH2           1 RES     
     866 CH2         10.4501    20.8648   -12.4913 CH2           1 RES     
     867 CH2         10.0760    20.0586   -13.7489 CH2           1 RES     
     868 CH2         10.4501    20.8648   -15.0065 CH2           1 RES     
     869 CH2         10.0760    20.0586   -16.2642 CH2           1 RES     
     870 CH2         10.4501    20.8648   -17.5218 CH2           1 RES     
     871 O           10.9545    21.9089     0.0000 O             1 RES     
     872 C           10.4283    20.7971     0.0000 C             1 RES     
     873 OA          10.1366    20.1526     1.1322 OA            1 RES     
     874 H           10.4077    20.7070     1.8675 H             1 RES     
     875 CH3         16.2673    15.2431     0.0278 CH3           1 RES     
     876 CH2         16.1637    14.4010    -1.1726 CH2           1 RES     
     877 CH2         16.2723    15.2832    -2.4303 CH2           1 RES     
     878 CH2         16.1637    14.4010    -3.6879 CH2           1 RES     
     879 CH2         16.2723    15.2832    -4.9455 CH2           1 RES     
     880 CH2         16.1637    14.4010    -6.2032 CH2           1 RES     
     881 CH2         16.2723    15.2832    -7.4608 CH2           1 RES     
     882 CH2         16.1637    14.4010    -8.7184 CH2           1 RES     
     883 CH2         16.2723    15.2832    -9.9760 CH2           1 RES     
     884 CH2         16.1637    14.4010   -11.2337 CH2           1 RES     
     885 CH2         16.2723    15.2832   -12.4913 CH2           1 RES     
     886 CH2         16.1637    14.4010   -13.7489 CH2           1 RES     
     887 CH2         16.2723    15.2832   -15.0065 CH2           1 RES     
     888 CH2         16.1637    14.4010   -16.2642 CH2           1 RES     
     889 CH2         16.2723    15.2832   -17.5218 CH2           1 RES     
     890 O           16.4317    16.4317     0.0000 O             1 RES     
     891 C           16.2722    15.2121     0.0000 C             1 RES     
     892 OA          16.1925    14.5091     1.1322 OA            1 RES     
     893 H           16.2803    15.1199     1.8675 H             1 RES     
     894 CH3         38.7713    20.7890     0.0278 CH3           1 RES     
     895 CH2         39.0876    20.0018    -1.1726 CH2           1 RES     
     896 CH2         38.7562    20.8265    -2.4303 CH2           1 RES     
     897 CH2         39.0876    20.0018    -3.6879 CH2           1 RES     
     898 CH2         38.7562    20.8265    -4.9455 CH2           1 RES     
     899 CH2         39.0876    20.0018    -6.2032 CH2           1 RES     
     900 CH2         38.7562    20.8265    -7.4608 CH2           1 RES     
     901 CH2         39.0876    20.0018    -8.7184 CH2           1 RES     
     902 CH2         38.7562    20.8265    -9.9760 CH2           1 RES     
     903 CH2         39.0876    20.0018   -11.2337 CH2           1 RES     
     904 CH2         38.7562    20.8265   -12.4913 CH2           1 RES     
     905 CH2         39.0876    20.0018   -13.7489 CH2           1 RES     
     906 CH2         38.7562    20.8265   -15.0065 CH2           1 RES     
     907 CH2         39.0876    20.0018   -16.2642 CH2           1 RES     
     908 CH2         38.7562    20.8265   -17.5218 CH2           1 RES     
     909 O           38.3406    21.9089     0.0000 O             1 RES     
     910 C           38.7906    20.7642     0.0000 C             1 RES     
     911 OA          39.0606    20.1102     1.1322 OA            1 RES     
     912 H           38.8422    20.6874     1.8675 H             1 RES     
     913 CH3         32.5640    15.2697     0.0278 CH3           1 RES     
     914 CH2         32.3646    14.4451    -1.1726 CH2           1 RES     
     915 CH2         32.5735    15.3090    -2.4303 CH2           1 RES     
     916 CH2         32.3646    14.4451    -3.6879 CH2           1 RES     
     917 CH2         32.5735    15.3090    -4.9455 CH2           1 RES     
     918 CH2         32.3646    14.4451    -6.2032 CH2           1 RES     
     919 CH2         32.5735    15.3090    -7.4608 CH2           1 RES     
     920 CH2         32.3646    14.4451    -8.7184 CH2           1 RES     
     921 CH2         32.5735    15.3090    -9.9760 CH2           1 RES     
     922 CH2         32.3646    14.4451   -11.2337 CH2           1 RES     
     923 CH2         32.5735    15.3090   -12.4913 CH2           1 RES     
     924 CH2         32.3646    14.4451   -13.7489 CH2           1 RES     
     925 CH2         32.5735    15.3090   -15.0065 CH2           1 RES     
     926 CH2         32.3646    14.4451   -16.2642 CH2           1 RES     
     927 CH2         32.5735    15.3090   -17.5218 CH2           1 RES     
     928 O           32.8634    16.4317     0.0000 O             1 RES     
     929 C           32.5653    15.2383     0.0000 C             1 RES     
     930 OA          32.4056    14.5491     1.1322 OA            1 RES     
     931 H           32.5628    15.1459     1.8675 H             1 RES     
     932 CH3         16.0428    31.7282     0.0278 CH3           1 RES     
     933 CH2         15.7798    30.9216    -1.1726 CH2           1 RES     
     934 CH2         16.0553    31.7666    -2.4303 CH2           1 RES     
     935 CH2         15.7798    30.9216    -3.6879 CH2           1 RES     
     936 CH2         16.0553    31.7666    -4.9455 CH2           1 RES     
     937 CH2         15.7798    30.9216    -6.2032 CH2           1 RES     
     938 CH2         16.0553    31.7666    -7.4608 CH2           1 RES     
     939 CH2         15.7798    30.9216    -8.7184 CH2           1 RES     
     940 CH2         16.0553    31.7666    -9.9760 CH2           1 RES     
     941 CH2         15.7798    30.9216   -11.2337 CH2           1 RES     
     942 CH2         16.0553    31.7666   -12.4913 CH2           1 RES     
     943 CH2         15.7798    30.9216   -13.7489 CH2           1 RES     
     944 CH2         16.0553    31.7666   -15.0065 CH2           1 RES     
     945 CH2         15.7798    30.9216   -16.2642 CH2           1 RES     
     946 CH2         16.0553    31.7666   -17.5218 CH2           1 RES     
     947 O           16.4317    32.8634     0.0000 O             1 RES     
     948 C           16.0416    31.6968     0.0000 C             1 RES     
     949 OA          15.8288    31.0221     1.1322 OA            1 RES     
     950 H           16.0319    31.6049     1.8675 H             1 RES     
     951 CH3         10.8648     9.7579     0.0278 CH3           1 RES     
     952 CH2         10.8140     8.9110    -1.1726 CH2           1 RES     
     953 CH2         10.8672     9.7982    -2.4303 CH2           1 RES     
     954 CH2         10.8140     8.9110    -3.6879 CH2           1 RES     
     955 CH2         10.8672     9.7982    -4.9455 CH2           1 RES     
     956 CH2         10.8140     8.9110    -6.2032 CH2           1 RES     
     957 CH2         10.8672     9.7982    -7.4608 CH2           1 RES     
     958 CH2         10.8140     8.9110    -8.7184 CH2           1 RES     
     959 CH2         10.8672     9.7982    -9.9760 CH2           1 RES     
     960 CH2         10.8140     8.9110   -11.2337 CH2           1 RES     
     961 CH2         10.8672     9.7982   -12.4913 CH2           1 RES     
     962 CH2         10.8140     8.9110   -13.7489 CH2           1 RES     
     963 CH2         10.8672     9.7982   -15.0065 CH2           1 RES     
     964 CH2         10.8140     8.9110   -16.2642 CH2           1 RES     
     965 CH2         10.8672     9.7982   -17.5218 CH2           1 RES     
     966 O           10.9545    10.9545     0.0000 O             1 RES     
     967 C           10.8716     9.7272     0.0000 C             1 RES     
     968 OA          10.8360     9.0206     1.1322 OA            1 RES     
     969 H           10.8854     9.6358     1.8675 H             1 RES     
     970 CH3         38.1591    31.6773     0.0278 CH3           1 RES     
     971 CH2         38.0433    30.8368    -1.1726 CH2           1 RES     
     972 CH2         38.1646    31.7173    -2.4303 CH2           1 RES     
     973 CH2         38.0433    30.8368    -3.6879 CH2           1 RES     
     974 CH2         38.1646    31.7173    -4.9455 CH2           1 RES     
     975 CH2         38.0433    30.8368    -6.2032 CH2           1 RES     
     976 CH2         38.1646    31.7173    -7.4608 CH2           1 RES     
     977 CH2         38.0433    30.8368    -8.7184 CH2           1 RES     
     978 CH2         38.1646    31.7173    -9.9760 CH2           1 RES     
     979 CH2         38.0433    30.8368   -11.2337 CH2           1 RES     
     980 CH2         38.1646    31.7173   -12.4913 CH2           1 RES     
     981 CH2         38.0433    30.8368   -13.7489 CH2           1 RES     
     982 CH2         38.1646    31.7173   -15.0065 CH2           1 RES     
     983 CH2         38.0433    30.8368   -16.2642 CH2           1 RES     
     984 CH2         38.1646    31.7173   -17.5218 CH2           1 RES     
     985 O           38.3406    32.8634     0.0000 O             1 RES     
     986 C           38.1635    31.6462     0.0000 C             1 RES     
     987 OA          38.0737    30.9444     1.1322 OA            1 RES     
     988 H           38.1703    31.5539     1.8675 H             1 RES     
     989 CH3         17.0145    26.3373     0.0278 CH3           1 RES     
     990 CH2         17.4377    25.6020    -1.1726 CH2           1 RES     
     991 CH2         16.9944    26.3723    -2.4303 CH2           1 RES     
     992 CH2         17.4377    25.6020    -3.6879 CH2           1 RES     
     993 CH2         16.9944    26.3723    -4.9455 CH2           1 RES     
     994 CH2         17.4377    25.6020    -6.2032 CH2           1 RES     
     995 CH2         16.9944    26.3723    -7.4608 CH2           1 RES     
     996 CH2         17.4377    25.6020    -8.7184 CH2           1 RES     
     997 CH2         16.9944    26.3723    -9.9760 CH2           1 RES     
     998 CH2         17.4377    25.6020   -11.2337 CH2           1 RES     
     999 CH2         16.9944    26.3723   -12.4913 CH2           1 RES     
    1000 CH2         17.4377    25.6020   -13.7489 CH2           1 RES     
    1001 CH2         16.9944    26.3723   -15.0065 CH2           1 RES     
    1002 CH2         17.4377    25.6020   -16.2642 CH2           1 RES     
    1003 CH2         16.9944    26.3723   -17.5218 CH2           1 RES     
    1004 O           16.4317    27.3861     0.0000 O             1 RES     
    1005 C           17.0371    26.3154     0.0000 C             1 RES     
    1006 OA          17.3958    25.7056     1.1322 OA            1 RES     
    1007 H           17.0989    26.2467     1.8675 H             1 RES     
    1008 CH3         27.2813    15.2364     0.0278 CH3           1 RES     
    1009 CH2         27.2198    14.3902    -1.1726 CH2           1 RES     
    1010 CH2         27.2842    15.2767    -2.4303 CH2           1 RES     
    1011 CH2         27.2198    14.3902    -3.6879 CH2           1 RES     
    1012 CH2         27.2842    15.2767    -4.9455 CH2           1 RES     
    1013 CH2         27.2198    14.3902    -6.2032 CH2           1 RES     
    1014 CH2         27.2842    15.2767    -7.4608 CH2           1 RES     
    1015 CH2         27.2198    14.3902    -8.7184 CH2           1 RES     
    1016 CH2         27.2842    15.2767    -9.9760 CH2           1 RES     
    1017 CH2         27.2198    14.3902   -11.2337 CH2           1 RES     
    1018 CH2         27.2842    15.2767   -12.4913 CH2           1 RES     
    1019 CH2         27.2198    14.3902   -13.7489 CH2           1 RES     
    1020 CH2         27.2842    15.2767   -15.0065 CH2           1 RES     
    1021 CH2         27.2198    14.3902   -16.2642 CH2           1 RES     
    1022 CH2         27.2842    15.2767   -17.5218 CH2           1 RES     
    1023 O           27.3861    16.4317     0.0000 O             1 RES     
    1024 C           27.2877    15.2056     0.0000 C             1 RES     
    1025 OA          27.2432    14.4995     1.1322 OA            1 RES     
    1026 H           27.3004    15.1140     1.8675 H             1 RES     
    1027 CH3         16.0780    37.1940     0.0278 CH3           1 RES     
    1028 CH2         15.8401    36.3796    -1.1726 CH2           1 RES     
    1029 CH2         16.0893    37.2328    -2.4303 CH2           1 RES     
    1030 CH2         15.8401    36.3796    -3.6879 CH2           1 RES     
    1031 CH2         16.0893    37.2328    -4.9455 CH2           1 RES     
    1032 CH2         15.8401    36.3796    -6.2032 CH2           1 RES     
    1033 CH2         16.0893    37.2328    -7.4608 CH2           1 RES     
    1034 CH2         15.8401    36.3796    -8.7184 CH2           1 RES     
    1035 CH2         16.0893    37.2328    -9.9760 CH2           1 RES     
    1036 CH2         15.8401    36.3796   -11.2337 CH2           1 RES     
    1037 CH2         16.0893    37.2328   -12.4913 CH2           1 RES     
    1038 CH2         15.8401    36.3796   -13.7489 CH2           1 RES     
    1039 CH2         16.0893    37.2328   -15.0065 CH2           1 RES     
    1040 CH2         15.8401    36.3796   -16.2642 CH2           1 RES     
    1041 CH2         16.0893    37.2328   -17.5218 CH2           1 RES     
    1042 O           16.4317    38.3406     0.0000 O             1 RES     
    1043 C           16.0778    37.1626     0.0000 C             1 RES     
    1044 OA          15.8859    36.4816     1.1322 OA            1 RES     
    1045 H           16.0710    37.0704     1.8675 H             1 RES     
    1046 CH3         11.0674    26.1916     0.0278 CH3           1 RES     
    1047 CH2         11.1599    25.3482    -1.1726 CH2           1 RES     
    1048 CH2         11.0630    26.2317    -2.4303 CH2           1 RES     
    1049 CH2         11.1599    25.3482    -3.6879 CH2           1 RES     
    1050 CH2         11.0630    26.2317    -4.9455 CH2           1 RES     
    1051 CH2         11.1599    25.3482    -6.2032 CH2           1 RES     
    1052 CH2         11.0630    26.2317    -7.4608 CH2           1 RES     
    1053 CH2         11.1599    25.3482    -8.7184 CH2           1 RES     
    1054 CH2         11.0630    26.2317    -9.9760 CH2           1 RES     
    1055 CH2         11.1599    25.3482   -11.2337 CH2           1 RES     
    1056 CH2         11.0630    26.2317   -12.4913 CH2           1 RES     
    1057 CH2         11.1599    25.3482   -13.7489 CH2           1 RES     
    1058 CH2         11.0630    26.2317   -15.0065 CH2           1 RES     
    1059 CH2         11.1599    25.3482   -16.2642 CH2           1 RES     
    1060 CH2         11.0630    26.2317   -17.5218 CH2           1 RES     
    1061 O           10.9545    27.3861     0.0000 O             1 RES     
    1062 C           11.0793    26.1625     0.0000 C             1 RES     
    1063 OA          11.1631    25.4600     1.1322 OA            1 RES     
    1064 H           11.1083    26.0747     1.8675 H             1 RES     
    1065 CH3          0.1643    37.1520     0.0278 CH3           1 RES     
    1066 CH2          0.2931    36.3134    -1.1726 CH2           1 RES     
    1067 CH2          0.1582    37.1919    -2.4303 CH2           1 RES     
    1068 CH2          0.2931    36.3134    -3.6879 CH2           1 RES     
    1069 CH2          0.1582    37.1919    -4.9455 CH2           1 RES     
    1070 CH2          0.2931    36.3134    -6.2032 CH2           1 RES     
    1071 CH2          0.1582    37.1919    -7.4608 CH2           1 RES     
    1072 CH2          0.2931    36.3134    -8.7184 CH2           1 RES     
    1073 CH2          0.1582    37.1919    -9.9760 CH2           1 RES     
    1074 CH2          0.2931    36.3134   -11.2337 CH2           1 RES     
    1075 CH2          0.1582    37.1919   -12.4913 CH2           1 RES     
    1076 CH2          0.2931    36.3134   -13.7489 CH2           1 RES     
    1077 CH2          0.1582    37.1919   -15.0065 CH2           1 RES     
    1078 CH2          0.2931    36.3134   -16.2642 CH2           1 RES     
    1079 CH2          0.1582    37.1919   -17.5218 CH2           1 RES     
    1080 O            0.0000    38.3406     0.0000 O             1 RES     
    1081 C            0.1775    37.1234     0.0000 C             1 RES     
    1082 OA           0.2915    36.4252     1.1322 OA            1 RES     
    1083 H            0.2102    37.0370     1.8675 H             1 RES     
    1084 CH3         21.7661    15.2403     0.0278 CH3           1 RES     
    1085 CH2         21.6778    14.3965    -1.1726 CH2           1 RES     
    1086 CH2         21.7704    15.2805    -2.4303 CH2           1 RES     
    1087 CH2         21.6778    14.3965    -3.6879 CH2           1 RES     
    1088 CH2         21.7704    15.2805    -4.9455 CH2           1 RES     
    1089 CH2         21.6778    14.3965    -6.2032 CH2           1 RES     
    1090 CH2         21.7704    15.2805    -7.4608 CH2           1 RES     
    1091 CH2         21.6778    14.3965    -8.7184 CH2           1 RES     
    1092 CH2         21.7704    15.2805    -9.9760 CH2           1 RES     
    1093 CH2         21.6778    14.3965   -11.2337 CH2           1 RES     
    1094 CH2         21.7704    15.2805   -12.4913 CH2           1 RES     
    1095 CH2         21.6778    14.3965   -13.7489 CH2           1 RES     
    1096 CH2         21.7704    15.2805   -15.0065 CH2           1 RES     
    1097 CH2         21.6778    14.3965   -16.2642 CH2           1 RES     
    1098 CH2         21.7704    15.2805   -17.5218 CH2           1 RES     
    1099 O           21.9089    16.4317     0.0000 O             1 RES     
    1100 C           21.7716    15.2094     0.0000 C             1 RES     
    1101 OA          21.7047    14.5050     1.1322 OA            1 RES     
    1102 H           21.7814    15.1174     1.8675 H             1 RES     
    1103 CH3         33.0431    26.1998     0.0278 CH3           1 RES     
    1104 CH2         33.1828    25.3629    -1.1726 CH2           1 RES     
    1105 CH2         33.0365    26.2396    -2.4303 CH2           1 RES     
    1106 CH2         33.1828    25.3629    -3.6879 CH2           1 RES     
    1107 CH2         33.0365    26.2396    -4.9455 CH2           1 RES     
    1108 CH2         33.1828    25.3629    -6.2032 CH2           1 RES     
    1109 CH2         33.0365    26.2396    -7.4608 CH2           1 RES     
    1110 CH2         33.1828    25.3629    -8.7184 CH2           1 RES     
    1111 CH2         33.0365    26.2396    -9.9760 CH2           1 RES     
    1112 CH2         33.1828    25.3629   -11.2337 CH2           1 RES     
    1113 CH2         33.0365    26.2396   -12.4913 CH2           1 RES     
    1114 CH2         33.1828    25.3629   -13.7489 CH2           1 RES     
    1115 CH2         33.0365    26.2396   -15.0065 CH2           1 RES     
    1116 CH2         33.1828    25.3629   -16.2642 CH2           1 RES     
    1117 CH2         33.0365    26.2396   -17.5218 CH2           1 RES     
    1118 O           32.8634    27.3861     0.0000 O             1 RES     
    1119 C           33.0566    26.1714     0.0000 C             1 RES     
    1120 OA          33.1797    25.4747     1.1322 OA            1 RES     
    1121 H           33.0905    26.0854     1.8675 H             1 RES     
    1122 CH3         37.9915    15.2837     0.0278 CH3           1 RES     
    1123 CH2         37.7568    14.4684    -1.1726 CH2           1 RES     
    1124 CH2         38.0027    15.3225    -2.4303 CH2           1 RES     
    1125 CH2         37.7568    14.4684    -3.6879 CH2           1 RES     
    1126 CH2         38.0027    15.3225    -4.9455 CH2           1 RES     
    1127 CH2         37.7568    14.4684    -6.2032 CH2           1 RES     
    1128 CH2         38.0027    15.3225    -7.4608 CH2           1 RES     
    1129 CH2         37.7568    14.4684    -8.7184 CH2           1 RES     
    1130 CH2         38.0027    15.3225    -9.9760 CH2           1 RES     
    1131 CH2         37.7568    14.4684   -11.2337 CH2           1 RES     
    1132 CH2         38.0027    15.3225   -12.4913 CH2           1 RES     
    1133 CH2         37.7568    14.4684   -13.7489 CH2           1 RES     
    1134 CH2         38.0027    15.3225   -15.0065 CH2           1 RES     
    1135 CH2         37.7568    14.4684   -16.2642 CH2           1 RES     
    1136 CH2         38.0027    15.3225   -17.5218 CH2           1 RES     
    1137 O           38.3406    16.4317     0.0000 O             1 RES     
    1138 C           37.9914    15.2523     0.0000 C             1 RES     
    1139 OA          37.8022    14.5705     1.1322 OA            1 RES     
    1140 H           37.9849    15.1600     1.8675 H             1 RES     
    1141 CH3          0.4772    15.3307     0.0278 CH3           1 RES     
    1142 CH2          0.8262    14.5574    -1.1726 CH2           1 RES     
    1143 CH2          0.4605    15.3676    -2.4303 CH2           1 RES     
    1144 CH2          0.8262    14.5574    -3.6879 CH2           1 RES     
    1145 CH2          0.4605    15.3676    -4.9455 CH2           1 RES     
    1146 CH2          0.8262    14.5574    -6.2032 CH2           1 RES     
    1147 CH2          0.4605    15.3676    -7.4608 CH2           1 RES     
    1148 CH2          0.8262    14.5574    -8.7184 CH2           1 RES     
    1149 CH2          0.4605    15.3676    -9.9760 CH2           1 RES     
    1150 CH2          0.8262    14.5574   -11.2337 CH2           1 RES     
    1151 CH2          0.4605    15.3676   -12.4913 CH2           1 RES     
    1152 CH2          0.8262    14.5574   -13.7489 CH2           1 RES     
    1153 CH2          0.4605    15.3676   -15.0065 CH2           1 RES     
    1154 CH2          0.8262    14.5574   -16.2642 CH2           1 RES     
    1155 CH2          0.4605    15.3676   -17.5218 CH2           1 RES     
    1156 O            0.0000    16.4317     0.0000 O             1 RES     
    1157 C            0.4975    15.3068     0.0000 C             1 RES     
    1158 OA           0.7946    14.6647     1.1322 OA            1 RES     
    1159 H            0.5522    15.2323     1.8675 H             1 RES     
    1160 CH3         16.7922     9.8100     0.0278 CH3           1 RES     
    1161 CH2         17.0592     9.0047    -1.1726 CH2           1 RES     
    1162 CH2         16.7795     9.8484    -2.4303 CH2           1 RES     
    1163 CH2         17.0592     9.0047    -3.6879 CH2           1 RES     
    1164 CH2         16.7795     9.8484    -4.9455 CH2           1 RES     
    1165 CH2         17.0592     9.0047    -6.2032 CH2           1 RES     
    1166 CH2         16.7795     9.8484    -7.4608 CH2           1 RES     
    1167 CH2         17.0592     9.0047    -8.7184 CH2           1 RES     
    1168 CH2         16.7795     9.8484    -9.9760 CH2           1 RES     
    1169 CH2         17.0592     9.0047   -11.2337 CH2           1 RES     
    1170 CH2         16.7795     9.8484   -12.4913 CH2           1 RES     
    1171 CH2         17.0592     9.0047   -13.7489 CH2           1 RES     
    1172 CH2         16.7795     9.8484   -15.0065 CH2           1 RES     
    1173 CH2         17.0592     9.0047   -16.2642 CH2           1 RES     
    1174 CH2         16.7795     9.8484   -17.5218 CH2           1 RES     
    1175 O           16.4317    10.9545     0.0000 O             1 RES     
    1176 C           16.8099     9.7841     0.0000 C             1 RES     
    1177 OA          17.0390     9.1147     1.1322 OA            1 RES     
    1178 H           16.8567     9.7043     1.8675 H             1 RES     
    1179 CH3         21.8347     4.2796     0.0278 CH3           1 RES     
    1180 CH2         21.7948     3.4322    -1.1726 CH2           1 RES     
    1181 CH2         21.8366     4.3200    -2.4303 CH2           1 RES     
    1182 CH2         21.7948     3.4322    -3.6879 CH2           1 RES     
    1183 CH2         21.8366     4.3200    -4.9455 CH2           1 RES     
    1184 CH2         21.7948     3.4322    -6.2032 CH2           1 RES     
    1185 CH2         21.8366     4.3200    -7.4608 CH2           1 RES     
    1186 CH2         21.7948     3.4322    -8.7184 CH2           1 RES     
    1187 CH2         21.8366     4.3200    -9.9760 CH2           1 RES     
    1188 CH2         21.7948     3.4322   -11.2337 CH2           1 RES     
    1189 CH2         21.8366     4.3200   -12.4913 CH2           1 RES     
    1190 CH2         21.7948     3.4322   -13.7489 CH2           1 RES     
    1191 CH2         21.8366     4.3200   -15.0065 CH2           1 RES     
    1192 CH2         21.7948     3.4322   -16.2642 CH2           1 RES     
    1193 CH2         21.8366     4.3200   -17.5218 CH2           1 RES     
    1194 O           21.9089     5.4772     0.0000 O             1 RES     
    1195 C           21.8419     4.2491     0.0000 C             1 RES     
    1196 OA          21.8154     3.5420     1.1322 OA            1 RES     
    1197 H           21.8569     4.1578     1.8675 H             1 RES     
    1198 CH3         27.7247     4.3261     0.0278 CH3           1 RES     
    1199 CH2         27.9763     3.5158    -1.1726 CH2           1 RES     
    1200 CH2         27.7127     4.3647    -2.4303 CH2           1 RES     
    1201 CH2         27.9763     3.5158    -3.6879 CH2           1 RES     
    1202 CH2         27.7127     4.3647    -4.9455 CH2           1 RES     
    1203 CH2         27.9763     3.5158    -6.2032 CH2           1 RES     
    1204 CH2         27.7127     4.3647    -7.4608 CH2           1 RES     
    1205 CH2         27.9763     3.5158    -8.7184 CH2           1 RES     
    1206 CH2         27.7127     4.3647    -9.9760 CH2           1 RES     
    1207 CH2         27.9763     3.5158   -11.2337 CH2           1 RES     
    1208 CH2         27.7127     4.3647   -12.4913 CH2           1 RES     
    1209 CH2         27.9763     3.5158   -13.7489 CH2           1 RES     
    1210 CH2         27.7127     4.3647   -15.0065 CH2           1 RES     
    1211 CH2         27.9763     3.5158   -16.2642 CH2           1 RES     
    1212 CH2         27.7127     4.3647   -17.5218 CH2           1 RES     
    1213 O           27.3861     5.4772     0.0000 O             1 RES     
    1214 C           27.7419     4.2998     0.0000 C             1 RES     
    1215 OA          27.9581     3.6262     1.1322 OA            1 RES     
    1216 H           27.7871     4.2192     1.8675 H             1 RES     
    1217 CH3         27.0015    37.1680   -24.0058 CH3           1 RES     
    1218 CH2         26.8090    36.3418   -22.8053 CH2           1 RES     
    1219 CH2         27.0107    37.2074   -21.5477 CH2           1 RES     
    1220 CH2         26.8090    36.3418   -20.2901 CH2           1 RES     
    1221 CH2         27.0107    37.2074   -19.0324 CH2           1 RES     
    1222 CH2         26.8090    36.3418   -17.7748 CH2           1 RES     
    1223 CH2         27.0107    37.2074   -16.5172 CH2           1 RES     
    1224 CH2         26.8090    36.3418   -15.2596 CH2           1 RES     
    1225 CH2         27.0107    37.2074   -14.0019 CH2           1 RES     
    1226 CH2         26.8090    36.3418   -12.7443 CH2           1 RES     
    1227 CH2         27.0107    37.2074   -11.4867 CH2           1 RES     
    1228 CH2         26.8090    36.3418   -10.2291 CH2           1 RES     
    1229 CH2         27.0107    37.2074    -8.9714 CH2           1 RES     
    1230 CH2         26.8090    36.3418    -7.7138 CH2           1 RES     
    1231 CH2         27.0107    37.2074    -6.4562 CH2           1 RES     
    1232 O           27.2563    38.3406   -23.9780 O             1 RES     
    1233 C           26.9862    37.1406   -23.9780 C             1 RES     
    1234 OA          26.8191    36.4531   -25.1101 OA            1 RES     
    1235 H           26.9470    37.0569   -25.8455 H             1 RES     
    1236 CH3         32.6702    37.1424   -24.0058 CH3           1 RES     
    1237 CH2         32.6128    36.2959   -22.8053 CH2           1 RES     
    1238 CH2         32.6730    37.1827   -21.5477 CH2           1 RES     
    1239 CH2         32.6128    36.2959   -20.2901 CH2           1 RES     
    1240 CH2         32.6730    37.1827   -19.0324 CH2           1 RES     
    1241 CH2         32.6128    36.2959   -17.7748 CH2           1 RES     
    1242 CH2         32.6730    37.1827   -16.5172 CH2           1 RES     
    1243 CH2         32.6128    36.2959   -15.2596 CH2           1 RES     
    1244 CH2         32.6730    37.1827   -14.0019 CH2           1 RES     
    1245 CH2         32.6128    36.2959   -12.7443 CH2           1 RES     
    1246 CH2         32.6730    37.1827   -11.4867 CH2           1 RES     
    1247 CH2         32.6128    36.2959   -10.2291 CH2           1 RES     
    1248 CH2         32.6730    37.1827    -8.9714 CH2           1 RES     
    1249 CH2         32.6128    36.2959    -7.7138 CH2           1 RES     
    1250 CH2         32.6730    37.1827    -6.4562 CH2           1 RES     
    1251 O           32.7335    38.3406   -23.9780 O             1 RES     
    1252 C           32.6596    37.1128   -23.9780 C             1 RES     
    1253 OA          32.6050    36.4074   -25.1101 OA            1 RES     
    1254 H           32.6342    37.0239   -25.8455 H             1 RES     
    1255 CH3         21.5287    37.1671   -24.0058 CH3           1 RES     
    1256 CH2         21.3393    36.3401   -22.8053 CH2           1 RES     
    1257 CH2         21.5377    37.2065   -21.5477 CH2           1 RES     
    1258 CH2         21.3393    36.3401   -20.2901 CH2           1 RES     
    1259 CH2         21.5377    37.2065   -19.0324 CH2           1 RES     
    1260 CH2         21.3393    36.3401   -17.7748 CH2           1 RES     
    1261 CH2         21.5377    37.2065   -16.5172 CH2           1 RES     
    1262 CH2         21.3393    36.3401   -15.2596 CH2           1 RES     
    1263 CH2         21.5377    37.2065   -14.0019 CH2           1 RES     
    1264 CH2         21.3393    36.3401   -12.7443 CH2           1 RES     
    1265 CH2         21.5377    37.2065   -11.4867 CH2           1 RES     
    1266 CH2         21.3393    36.3401   -10.2291 CH2           1 RES     
    1267 CH2         21.5377    37.2065    -8.9714 CH2           1 RES     
    1268 CH2         21.3393    36.3401    -7.7138 CH2           1 RES     
    1269 CH2         21.5377    37.2065    -6.4562 CH2           1 RES     
    1270 O           21.7790    38.3406   -23.9780 O             1 RES     
    1271 C           21.5135    37.1396   -23.9780 C             1 RES     
    1272 OA          21.3490    36.4515   -25.1101 OA            1 RES     
    1273 H           21.4746    37.0557   -25.8455 H             1 RES     
    1274 CH3         27.3648    15.2367   -24.0058 CH3           1 RES     
    1275 CH2         27.4289    14.3907   -22.8053 CH2           1 RES     
    1276 CH2         27.3618    15.2770   -21.5477 CH2           1 RES     
    1277 CH2         27.4289    14.3907   -20.2901 CH2           1 RES     
    1278 CH2         27.3618    15.2770   -19.0324 CH2           1 RES     
    1279 CH2         27.4289    14.3907   -17.7748 CH2           1 RES     
    1280 CH2         27.3618    15.2770   -16.5172 CH2           1 RES     
    1281 CH2         27.4289    14.3907   -15.2596 CH2           1 RES     
    1282 CH2         27.3618    15.2770   -14.0019 CH2           1 RES     
    1283 CH2         27.4289    14.3907   -12.7443 CH2           1 RES     
    1284 CH2         27.3618    15.2770   -11.4867 CH2           1 RES     
    1285 CH2         27.4289    14.3907   -10.2291 CH2           1 RES     
    1286 CH2         27.3618    15.2770    -8.9714 CH2           1 RES     
    1287 CH2         27.4289    14.3907    -7.7138 CH2           1 RES     
    1288 CH2         27.3618    15.2770    -6.4562 CH2           1 RES     
    1289 O           27.2563    16.4317   -23.9780 O             1 RES     
    1290 C           27.3585    15.2059   -23.9780 C             1 RES     
    1291 OA          27.4052    14.5000   -25.1101 OA            1 RES     
    1292 H           27.3461    15.1143   -25.8455 H             1 RES     
    1293 CH3         27.6417    26.2498   -24.0058 CH3           1 RES     
    1294 CH2         27.9022    25.4424   -22.8053 CH2           1 RES     
    1295 CH2         27.6293    26.2883   -21.5477 CH2           1 RES     
    1296 CH2         27.9022    25.4424   -20.2901 CH2           1 RES     
    1297 CH2         27.6293    26.2883   -19.0324 CH2           1 RES     
    1298 CH2         27.9022    25.4424   -17.7748 CH2           1 RES     
    1299 CH2         27.6293    26.2883   -16.5172 CH2           1 RES     
    1300 CH2         27.9022    25.4424   -15.2596 CH2           1 RES     
    1301 CH2         27.6293    26.2883   -14.0019 CH2           1 RES     
    1302 CH2         27.9022    25.4424   -12.7443 CH2           1 RES     
    1303 CH2         27.6293    26.2883   -11.4867 CH2           1 RES     
    1304 CH2         27.9022    25.4424   -10.2291 CH2           1 RES     
    1305 CH2         27.6293    26.2883    -8.9714 CH2           1 RES     
    1306 CH2         27.9022    25.4424    -7.7138 CH2           1 RES     
    1307 CH2         27.6293    26.2883    -6.4562 CH2           1 RES     
    1308 O           27.2563    27.3861   -23.9780 O             1 RES     
    1309 C           27.6427    26.2184   -23.9780 C             1 RES     
    1310 OA          27.8535    25.5431   -25.1101 OA            1 RES     
    1311 H           27.6522    26.1264   -25.8455 H             1 RES     
    1312 CH3         16.4311    -1.1929   -24.0058 CH3           1 RES     
    1313 CH2         16.5098    -2.0377   -22.8053 CH2           1 RES     
    1314 CH2         16.4273    -1.1527   -21.5477 CH2           1 RES     
    1315 CH2         16.5098    -2.0377   -20.2901 CH2           1 RES     
    1316 CH2         16.4273    -1.1527   -19.0324 CH2           1 RES     
    1317 CH2         16.5098    -2.0377   -17.7748 CH2           1 RES     
    1318 CH2         16.4273    -1.1527   -16.5172 CH2           1 RES     
    1319 CH2         16.5098    -2.0377   -15.2596 CH2           1 RES     
    1320 CH2         16.4273    -1.1527   -14.0019 CH2           1 RES     
    1321 CH2         16.5098    -2.0377   -12.7443 CH2           1 RES     
    1322 CH2         16.4273    -1.1527   -11.4867 CH2           1 RES     
    1323 CH2         16.5098    -2.0377   -10.2291 CH2           1 RES     
    1324 CH2         16.4273    -1.1527    -8.9714 CH2           1 RES     
    1325 CH2         16.5098    -2.0377    -7.7138 CH2           1 RES     
    1326 CH2         16.4273    -1.1527    -6.4562 CH2           1 RES     
    1327 O           16.3018    -0.0000   -23.9780 O             1 RES     
    1328 C           16.4253    -1.2238   -23.9780 C             1 RES     
    1329 OA          16.4842    -1.9288   -25.1101 OA            1 RES     
    1330 H           16.4145    -1.3156   -25.8455 H             1 RES     
    1331 CH3         21.9759    15.2480   -24.0058 CH3           1 RES     
    1332 CH2         22.1025    14.4091   -22.8053 CH2           1 RES     
    1333 CH2         21.9698    15.2880   -21.5477 CH2           1 RES     
    1334 CH2         22.1025    14.4091   -20.2901 CH2           1 RES     
    1335 CH2         21.9698    15.2880   -19.0324 CH2           1 RES     
    1336 CH2         22.1025    14.4091   -17.7748 CH2           1 RES     
    1337 CH2         21.9698    15.2880   -16.5172 CH2           1 RES     
    1338 CH2         22.1025    14.4091   -15.2596 CH2           1 RES     
    1339 CH2         21.9698    15.2880   -14.0019 CH2           1 RES     
    1340 CH2         22.1025    14.4091   -12.7443 CH2           1 RES     
    1341 CH2         21.9698    15.2880   -11.4867 CH2           1 RES     
    1342 CH2         22.1025    14.4091   -10.2291 CH2           1 RES     
    1343 CH2         21.9698    15.2880    -8.9714 CH2           1 RES     
    1344 CH2         22.1025    14.4091    -7.7138 CH2           1 RES     
    1345 CH2         21.9698    15.2880    -6.4562 CH2           1 RES     
    1346 O           21.7790    16.4317   -23.9780 O             1 RES     
    1347 C           21.9718    15.2169   -23.9780 C             1 RES     
    1348 OA          22.0708    14.5163   -25.1101 OA            1 RES     
    1349 H           21.9663    15.1246   -25.8455 H             1 RES     
    1350 CH3         38.3213    31.6686   -24.0058 CH3           1 RES     
    1351 CH2         38.3869    30.8227   -22.8053 CH2           1 RES     
    1352 CH2         38.3182    31.7088   -21.5477 CH2           1 RES     
    1353 CH2         38.3869    30.8227   -20.2901 CH2           1 RES     
    1354 CH2         38.3182    31.7088   -19.0324 CH2           1 RES     
    1355 CH2         38.3869    30.8227   -17.7748 CH2           1 RES     
    1356 CH2         38.3182    31.7088   -16.5172 CH2           1 RES     
    1357 CH2         38.3869    30.8227   -15.2596 CH2           1 RES     
    1358 CH2         38.3182    31.7088   -14.0019 CH2           1 RES     
    1359 CH2         38.3869    30.8227   -12.7443 CH2           1 RES     
    1360 CH2         38.3182    31.7088   -11.4867 CH2           1 RES     
    1361 CH2         38.3869    30.8227   -10.2291 CH2           1 RES     
    1362 CH2         38.3182    31.7088    -8.9714 CH2           1 RES     
    1363 CH2         38.3869    30.8227    -7.7138 CH2           1 RES     
    1364 CH2         38.3182    31.7088    -6.4562 CH2           1 RES     
    1365 O           38.2107    32.8634   -23.9780 O             1 RES     
    1366 C           38.3150    31.6378   -23.9780 C             1 RES     
    1367 OA          38.3630    30.9319   -25.1101 OA            1 RES     
    1368 H           38.3028    31.5461   -25.8455 H             1 RES     
    1369 CH3         38.0934     4.2831   -24.0058 CH3           1 RES     
    1370 CH2         37.9978     3.4401   -22.8053 CH2           1 RES     
    1371 CH2         38.0979     4.3232   -21.5477 CH2           1 RES     
    1372 CH2         37.9978     3.4401   -20.2901 CH2           1 RES     
    1373 CH2         38.0979     4.3232   -19.0324 CH2           1 RES     
    1374 CH2         37.9978     3.4401   -17.7748 CH2           1 RES     
    1375 CH2         38.0979     4.3232   -16.5172 CH2           1 RES     
    1376 CH2         37.9978     3.4401   -15.2596 CH2           1 RES     
    1377 CH2         38.0979     4.3232   -14.0019 CH2           1 RES     
    1378 CH2         37.9978     3.4401   -12.7443 CH2           1 RES     
    1379 CH2         38.0979     4.3232   -11.4867 CH2           1 RES     
    1380 CH2         37.9978     3.4401   -10.2291 CH2           1 RES     
    1381 CH2         38.0979     4.3232    -8.9714 CH2           1 RES     
    1382 CH2         37.9978     3.4401    -7.7138 CH2           1 RES     
    1383 CH2         38.0979     4.3232    -6.4562 CH2           1 RES     
    1384 O           38.2107     5.4772   -23.9780 O             1 RES     
    1385 C           38.0814     4.2540   -23.9780 C             1 RES     
    1386 OA          37.9950     3.5518   -25.1101 OA            1 RES     
    1387 H           38.0520     4.1664   -25.8455 H             1 RES     
    1388 CH3         32.2700    15.3249   -24.0058 CH3           1 RES     
    1389 CH2         31.9307    14.5473   -22.8053 CH2           1 RES     
    1390 CH2         32.2862    15.3619   -21.5477 CH2           1 RES     
    1391 CH2         31.9307    14.5473   -20.2901 CH2           1 RES     
    1392 CH2         32.2862    15.3619   -19.0324 CH2           1 RES     
    1393 CH2         31.9307    14.5473   -17.7748 CH2           1 RES     
    1394 CH2         32.2862    15.3619   -16.5172 CH2           1 RES     
    1395 CH2         31.9307    14.5473   -15.2596 CH2           1 RES     
    1396 CH2         32.2862    15.3619   -14.0019 CH2           1 RES     
    1397 CH2         31.9307    14.5473   -12.7443 CH2           1 RES     
    1398 CH2         32.2862    15.3619   -11.4867 CH2           1 RES     
    1399 CH2         31.9307    14.5473   -10.2291 CH2           1 RES     
    1400 CH2         32.2862    15.3619    -8.9714 CH2           1 RES     
    1401 CH2         31.9307    14.5473    -7.7138 CH2           1 RES     
    1402 CH2         32.2862    15.3619    -6.4562 CH2           1 RES     
    1403 O           32.7335    16.4317   -23.9780 O             1 RES     
    1404 C           32.2500    15.3007   -23.9780 C             1 RES     
    1405 OA          31.9609    14.6550   -25.1101 OA            1 RES     
    1406 H           32.1962    15.2255   -25.8455 H             1 RES     
    1407 CH3          5.9490     9.9163   -24.0058 CH3           1 RES     
    1408 CH2          6.3634     9.1760   -22.8053 CH2           1 RES     
    1409 CH2          5.9293     9.9515   -21.5477 CH2           1 RES     
    1410 CH2          6.3634     9.1760   -20.2901 CH2           1 RES     
    1411 CH2          5.9293     9.9515   -19.0324 CH2           1 RES     
    1412 CH2          6.3634     9.1760   -17.7748 CH2           1 RES     
    1413 CH2          5.9293     9.9515   -16.5172 CH2           1 RES     
    1414 CH2          6.3634     9.1760   -15.2596 CH2           1 RES     
    1415 CH2          5.9293     9.9515   -14.0019 CH2           1 RES     
    1416 CH2          6.3634     9.1760   -12.7443 CH2           1 RES     
    1417 CH2          5.9293     9.9515   -11.4867 CH2           1 RES     
    1418 CH2          6.3634     9.1760   -10.2291 CH2           1 RES     
    1419 CH2          5.9293     9.9515    -8.9714 CH2           1 RES     
    1420 CH2          6.3634     9.1760    -7.7138 CH2           1 RES     
    1421 CH2          5.9293     9.9515    -6.4562 CH2           1 RES     
    1422 O            5.3474    10.9545   -23.9780 O             1 RES     
    1423 C            5.9562     9.8857   -23.9780 C             1 RES     
    1424 OA           6.2959     9.2651   -25.1101 OA            1 RES     
    1425 H            5.9836     9.7974   -25.8455 H             1 RES     
    1426 CH3         -0.0170     4.2827   -24.0058 CH3           1 RES     
    1427 CH2          0.0501     3.4369   -22.8053 CH2           1 RES     
    1428 CH2         -0.0202     4.3229   -21.5477 CH2           1 RES     
    1429 CH2          0.0501     3.4369   -20.2901 CH2           1 RES     
    1430 CH2         -0.0202     4.3229   -19.0324 CH2           1 RES     
    1431 CH2          0.0501     3.4369   -17.7748 CH2           1 RES     
    1432 CH2         -0.0202     4.3229   -16.5172 CH2           1 RES     
    1433 CH2          0.0501     3.4369   -15.2596 CH2           1 RES     
    1434 CH2         -0.0202     4.3229   -14.0019 CH2           1 RES     
    1435 CH2          0.0501     3.4369   -12.7443 CH2           1 RES     
    1436 CH2         -0.0202     4.3229   -11.4867 CH2           1 RES     
    1437 CH2          0.0501     3.4369   -10.2291 CH2           1 RES     
    1438 CH2         -0.0202     4.3229    -8.9714 CH2           1 RES     
    1439 CH2          0.0501     3.4369    -7.7138 CH2           1 RES     
    1440 CH2         -0.0202     4.3229    -6.4562 CH2           1 RES     
    1441 O           -0.1299     5.4772   -23.9780 O             1 RES     
    1442 C           -0.0232     4.2519   -23.9780 C             1 RES     
    1443 OA           0.0260     3.5461   -25.1101 OA            1 RES     
    1444 H           -0.0353     4.1602   -25.8455 H             1 RES     
    1445 CH3          5.9255    -1.0514   -24.0058 CH3           1 RES     
    1446 CH2          6.3231    -1.8009   -22.8053 CH2           1 RES     
    1447 CH2          5.9066    -1.0157   -21.5477 CH2           1 RES     
    1448 CH2          6.3231    -1.8009   -20.2901 CH2           1 RES     
    1449 CH2          5.9066    -1.0157   -19.0324 CH2           1 RES     
    1450 CH2          6.3231    -1.8009   -17.7748 CH2           1 RES     
    1451 CH2          5.9066    -1.0157   -16.5172 CH2           1 RES     
    1452 CH2          6.3231    -1.8009   -15.2596 CH2           1 RES     
    1453 CH2          5.9066    -1.0157   -14.0019 CH2           1 RES     
    1454 CH2          6.3231    -1.8009   -12.7443 CH2           1 RES     
    1455 CH2          5.9066    -1.0157   -11.4867 CH2           1 RES     
    1456 CH2          6.3231    -1.8009   -10.2291 CH2           1 RES     
    1457 CH2          5.9066    -1.0157    -8.9714 CH2           1 RES     
    1458 CH2          6.3231    -1.8009    -7.7138 CH2           1 RES     
    1459 CH2          5.9066    -1.0157    -6.4562 CH2           1 RES     
    1460 O            5.3474    -0.0000   -23.9780 O             1 RES     
    1461 C            5.9320    -1.0822   -23.9780 C             1 RES     
    1462 OA           6.2576    -1.7103   -25.1101 OA            1 RES     
    1463 H            5.9574    -1.1711   -25.8455 H             1 RES     
    1464 CH3         15.8094    20.8147   -24.0058 CH3           1 RES     
    1465 CH2         15.4497    20.0464   -22.8053 CH2           1 RES     
    1466 CH2         15.8265    20.8513   -21.5477 CH2           1 RES     
    1467 CH2         15.4497    20.0464   -20.2901 CH2           1 RES     
    1468 CH2         15.8265    20.8513   -19.0324 CH2           1 RES     
    1469 CH2         15.4497    20.0464   -17.7748 CH2           1 RES     
    1470 CH2         15.8265    20.8513   -16.5172 CH2           1 RES     
    1471 CH2         15.4497    20.0464   -15.2596 CH2           1 RES     
    1472 CH2         15.8265    20.8513   -14.0019 CH2           1 RES     
    1473 CH2         15.4497    20.0464   -12.7443 CH2           1 RES     
    1474 CH2         15.8265    20.8513   -11.4867 CH2           1 RES     
    1475 CH2         15.4497    20.0464   -10.2291 CH2           1 RES     
    1476 CH2         15.8265    20.8513    -8.9714 CH2           1 RES     
    1477 CH2         15.4497    20.0464    -7.7138 CH2           1 RES     
    1478 CH2         15.8265    20.8513    -6.4562 CH2           1 RES     
    1479 O           16.3018    21.9089   -23.9780 O             1 RES     
    1480 C           15.7887    20.7910   -23.9780 C             1 RES     
    1481 OA          15.4827    20.1532   -25.1101 OA            1 RES     
    1482 H           15.7329    20.7173   -25.8455 H             1 RES     
    1483 CH3          5.7333    26.2500   -24.0058 CH3           1 RES     
    1484 CH2          5.9942    25.4427   -22.8053 CH2           1 RES     
    1485 CH2          5.7209    26.2884   -21.5477 CH2           1 RES     
    1486 CH2          5.9942    25.4427   -20.2901 CH2           1 RES     
    1487 CH2          5.7209    26.2884   -19.0324 CH2           1 RES     
    1488 CH2          5.9942    25.4427   -17.7748 CH2           1 RES     
    1489 CH2          5.7209    26.2884   -16.5172 CH2           1 RES     
    1490 CH2          5.9942    25.4427   -15.2596 CH2           1 RES     
    1491 CH2          5.7209    26.2884   -14.0019 CH2           1 RES     
    1492 CH2          5.9942    25.4427   -12.7443 CH2           1 RES     
    1493 CH2          5.7209    26.2884   -11.4867 CH2           1 RES     
    1494 CH2          5.9942    25.4427   -10.2291 CH2           1 RES     
    1495 CH2          5.7209    26.2884    -8.9714 CH2           1 RES     
    1496 CH2          5.9942    25.4427    -7.7138 CH2           1 RES     
    1497 CH2          5.7209    26.2884    -6.4562 CH2           1 RES     
    1498 O            5.3474    27.3861   -23.9780 O             1 RES     
    1499 C            5.7344    26.2186   -23.9780 C             1 RES     
    1500 OA           5.9455    25.5433   -25.1101 OA            1 RES     
    1501 H            5.7438    26.1266   -25.8455 H             1 RES     
    1502 CH3         21.8693     4.2807   -24.0058 CH3           1 RES     
    1503 CH2         21.9204     3.4339   -22.8053 CH2           1 RES     
    1504 CH2         21.8668     4.3211   -21.5477 CH2           1 RES     
    1505 CH2         21.9204     3.4339   -20.2901 CH2           1 RES     
    1506 CH2         21.8668     4.3211   -19.0324 CH2           1 RES     
    1507 CH2         21.9204     3.4339   -17.7748 CH2           1 RES     
    1508 CH2         21.8668     4.3211   -16.5172 CH2           1 RES     
    1509 CH2         21.9204     3.4339   -15.2596 CH2           1 RES     
    1510 CH2         21.8668     4.3211   -14.0019 CH2           1 RES     
    1511 CH2         21.9204     3.4339   -12.7443 CH2           1 RES     
    1512 CH2         21.8668     4.3211   -11.4867 CH2           1 RES     
    1513 CH2         21.9204     3.4339   -10.2291 CH2           1 RES     
    1514 CH2         21.8668     4.3211    -8.9714 CH2           1 RES     
    1515 CH2         21.9204     3.4339    -7.7138 CH2           1 RES     
    1516 CH2         21.8668     4.3211    -6.4562 CH2           1 RES     
    1517 O           21.7790     5.4772   -23.9780 O             1 RES     
    1518 C           21.8625     4.2501   -23.9780 C             1 RES     
    1519 OA          21.8984     3.5435   -25.1101 OA            1 RES     
    1520 H           21.8487     4.1586   -25.8455 H             1 RES     
    1521 CH3         27.0639    31.6790   -24.0058 CH3           1 RES     
    1522 CH2         26.9153    30.8437   -22.8053 CH2           1 RES     
    1523 CH2         27.0709    31.7188   -21.5477 CH2           1 RES     
    1524 CH2         26.9153    30.8437   -20.2901 CH2           1 RES     
    1525 CH2         27.0709    31.7188   -19.0324 CH2           1 RES     
    1526 CH2         26.9153    30.8437   -17.7748 CH2           1 RES     
    1527 CH2         27.0709    31.7188   -16.5172 CH2           1 RES     
    1528 CH2         26.9153    30.8437   -15.2596 CH2           1 RES     
    1529 CH2         27.0709    31.7188   -14.0019 CH2           1 RES     
    1530 CH2         26.9153    30.8437   -12.7443 CH2           1 RES     
    1531 CH2         27.0709    31.7188   -11.4867 CH2           1 RES     
    1532 CH2         26.9153    30.8437   -10.2291 CH2           1 RES     
    1533 CH2         27.0709    31.7188    -8.9714 CH2           1 RES     
    1534 CH2         26.9153    30.8437    -7.7138 CH2           1 RES     
    1535 CH2         27.0709    31.7188    -6.4562 CH2           1 RES     
    1536 O           27.2563    32.8634   -23.9780 O             1 RES     
    1537 C           27.0501    31.6508   -23.9780 C             1 RES     
    1538 OA          26.9195    30.9554   -25.1101 OA            1 RES     
    1539 H           27.0153    31.5651   -25.8455 H             1 RES     
    1540 CH3         33.1742     9.8384   -24.0058 CH3           1 RES     
    1541 CH2         33.4741     9.0448   -22.8053 CH2           1 RES     
    1542 CH2         33.1600     9.8762   -21.5477 CH2           1 RES     
    1543 CH2         33.4741     9.0448   -20.2901 CH2           1 RES     
    1544 CH2         33.1600     9.8762   -19.0324 CH2           1 RES     
    1545 CH2         33.4741     9.0448   -17.7748 CH2           1 RES     
    1546 CH2         33.1600     9.8762   -16.5172 CH2           1 RES     
    1547 CH2         33.4741     9.0448   -15.2596 CH2           1 RES     
    1548 CH2         33.1600     9.8762   -14.0019 CH2           1 RES     
    1549 CH2         33.4741     9.0448   -12.7443 CH2           1 RES     
    1550 CH2         33.1600     9.8762   -11.4867 CH2           1 RES     
    1551 CH2         33.4741     9.0448   -10.2291 CH2           1 RES     
    1552 CH2         33.1600     9.8762    -8.9714 CH2           1 RES     
    1553 CH2         33.4741     9.0448    -7.7138 CH2           1 RES     
    1554 CH2         33.1600     9.8762    -6.4562 CH2           1 RES     
    1555 O           32.7335    10.9545   -23.9780 O             1 RES     
    1556 C           33.1768     9.8071   -23.9780 C             1 RES     
    1557 OA          33.4205     9.1429   -25.1101 OA            1 RES     
    1558 H           33.1908     9.7157   -25.8455 H             1 RES     
    1559 CH3         16.5160    26.2055   -24.0058 CH3           1 RES     
    1560 CH2         16.6549    25.3685   -22.8053 CH2           1 RES     
    1561 CH2         16.5094    26.2454   -21.5477 CH2           1 RES     
    1562 CH2         16.6549    25.3685   -20.2901 CH2           1 RES     
    1563 CH2         16.5094    26.2454   -19.0324 CH2           1 RES     
    1564 CH2         16.6549    25.3685   -17.7748 CH2           1 RES     
    1565 CH2         16.5094    26.2454   -16.5172 CH2           1 RES     
    1566 CH2         16.6549    25.3685   -15.2596 CH2           1 RES     
    1567 CH2         16.5094    26.2454   -14.0019 CH2           1 RES     
    1568 CH2         16.6549    25.3685   -12.7443 CH2           1 RES     
    1569 CH2         16.5094    26.2454   -11.4867 CH2           1 RES     
    1570 CH2         16.6549    25.3685   -10.2291 CH2           1 RES     
    1571 CH2         16.5094    26.2454    -8.9714 CH2           1 RES     
    1572 CH2         16.6549    25.3685    -7.7138 CH2           1 RES     
    1573 CH2         16.5094    26.2454    -6.4562 CH2           1 RES     
    1574 O           16.3018    27.3861   -23.9780 O             1 RES     
    1575 C           16.5124    26.1743   -23.9780 C             1 RES     
    1576 OA          16.6216    25.4753   -25.1101 OA            1 RES     
    1577 H           16.5082    26.0819   -25.8455 H             1 RES     
    1578 CH3         38.0390    15.2441   -24.0058 CH3           1 RES     
    1579 CH2         37.9050    14.4064   -22.8053 CH2           1 RES     
    1580 CH2         38.0454    15.2840   -21.5477 CH2           1 RES     
    1581 CH2         37.9050    14.4064   -20.2901 CH2           1 RES     
    1582 CH2         38.0454    15.2840   -19.0324 CH2           1 RES     
    1583 CH2         37.9050    14.4064   -17.7748 CH2           1 RES     
    1584 CH2         38.0454    15.2840   -16.5172 CH2           1 RES     
    1585 CH2         37.9050    14.4064   -15.2596 CH2           1 RES     
    1586 CH2         38.0454    15.2840   -14.0019 CH2           1 RES     
    1587 CH2         37.9050    14.4064   -12.7443 CH2           1 RES     
    1588 CH2         38.0454    15.2840   -11.4867 CH2           1 RES     
    1589 CH2         37.9050    14.4064   -10.2291 CH2           1 RES     
    1590 CH2         38.0454    15.2840    -8.9714 CH2           1 RES     
    1591 CH2         37.9050    14.4064    -7.7138 CH2           1 RES     
    1592 CH2         38.0454    15.2840    -6.4562 CH2           1 RES     
    1593 O           38.2107    16.4317   -23.9780 O             1 RES     
    1594 C           38.0257    15.2157   -23.9780 C             1 RES     
    1595 OA          37.9073    14.5181   -25.1101 OA            1 RES     
    1596 H           37.9924    15.1294   -25.8455 H             1 RES     
    1597 CH3         27.0971    -1.1893   -24.0058 CH3           1 RES     
    1598 CH2         26.9721    -2.0284   -22.8053 CH2           1 RES     
    1599 CH2         27.1031    -1.1493   -21.5477 CH2           1 RES     
    1600 CH2         26.9721    -2.0284   -20.2901 CH2           1 RES     
    1601 CH2         27.1031    -1.1493   -19.0324 CH2           1 RES     
    1602 CH2         26.9721    -2.0284   -17.7748 CH2           1 RES     
    1603 CH2         27.1031    -1.1493   -16.5172 CH2           1 RES     
    1604 CH2         26.9721    -2.0284   -15.2596 CH2           1 RES     
    1605 CH2         27.1031    -1.1493   -14.0019 CH2           1 RES     
    1606 CH2         26.9721    -2.0284   -12.7443 CH2           1 RES     
    1607 CH2         27.1031    -1.1493   -11.4867 CH2           1 RES     
    1608 CH2         26.9721    -2.0284   -10.2291 CH2           1 RES     
    1609 CH2         27.1031    -1.1493    -8.9714 CH2           1 RES     
    1610 CH2         26.9721    -2.0284    -7.7138 CH2           1 RES     
    1611 CH2         27.1031    -1.1493    -6.4562 CH2           1 RES     
    1612 O           27.2563    -0.0000   -23.9780 O             1 RES     
    1613 C           27.0841    -1.2179   -23.9780 C             1 RES     
    1614 OA          26.9732    -1.9166   -25.1101 OA            1 RES     
    1615 H           27.0517    -1.3045   -25.8455 H             1 RES     
    1616 CH3         32.7774    20.7098   -24.0058 CH3           1 RES     
    1617 CH2         32.7958    19.8616   -22.8053 CH2           1 RES     
    1618 CH2         32.7766    20.7502   -21.5477 CH2           1 RES     
    1619 CH2         32.7958    19.8616   -20.2901 CH2           1 RES     
    1620 CH2         32.7766    20.7502   -19.0324 CH2           1 RES     
    1621 CH2         32.7958    19.8616   -17.7748 CH2           1 RES     
    1622 CH2         32.7766    20.7502   -16.5172 CH2           1 RES     
    1623 CH2         32.7958    19.8616   -15.2596 CH2           1 RES     
    1624 CH2         32.7766    20.7502   -14.0019 CH2           1 RES     
    1625 CH2         32.7958    19.8616   -12.7443 CH2           1 RES     
    1626 CH2         32.7766    20.7502   -11.4867 CH2           1 RES     
    1627 CH2         32.7958    19.8616   -10.2291 CH2           1 RES     
    1628 CH2         32.7766    20.7502    -8.9714 CH2           1 RES     
    1629 CH2         32.7958    19.8616    -7.7138 CH2           1 RES     
    1630 CH2         32.7766    20.7502    -6.4562 CH2           1 RES     
    1631 O           32.7335    21.9089   -23.9780 O             1 RES     
    1632 C           32.7695    20.6794   -23.9780 C             1 RES     
    1633 OA          32.7780    19.9720   -25.1101 OA            1 RES     
    1634 H           32.7521    20.5886   -25.8455 H             1 RES     
    1635 CH3         11.3403    20.8255   -24.0058 CH3           1 RES     
    1636 CH2         11.6935    20.0541   -22.8053 CH2           1 RES     
    1637 CH2         11.3235    20.8622   -21.5477 CH2           1 RES     
    1638 CH2         11.6935    20.0541   -20.2901 CH2           1 RES     
    1639 CH2         11.3235    20.8622   -19.0324 CH2           1 RES     
    1640 CH2         11.6935    20.0541   -17.7748 CH2           1 RES     
    1641 CH2         11.3235    20.8622   -16.5172 CH2           1 RES     
    1642 CH2         11.6935    20.0541   -15.2596 CH2           1 RES     
    1643 CH2         11.3235    20.8622   -14.0019 CH2           1 RES     
    1644 CH2         11.6935    20.0541   -12.7443 CH2           1 RES     
    1645 CH2         11.3235    20.8622   -11.4867 CH2           1 RES     
    1646 CH2         11.6935    20.0541   -10.2291 CH2           1 RES     
    1647 CH2         11.3235    20.8622    -8.9714 CH2           1 RES     
    1648 CH2         11.6935    20.0541    -7.7138 CH2           1 RES     
    1649 CH2         11.3235    20.8622    -6.4562 CH2           1 RES     
    1650 O           10.8246    21.9089   -23.9780 O             1 RES     
    1651 C           11.3450    20.7944   -23.9780 C             1 RES     
    1652 OA          11.6334    20.1484   -25.1101 OA            1 RES     
    1653 H           11.3652    20.7042   -25.8455 H             1 RES     
    1654 CH3         27.0923     4.2886   -24.0058 CH3           1 RES     
    1655 CH2         26.9639     3.4500   -22.8053 CH2           1 RES     
    1656 CH2         27.0985     4.3285   -21.5477 CH2           1 RES     
    1657 CH2         26.9639     3.4500   -20.2901 CH2           1 RES     
    1658 CH2         27.0985     4.3285   -19.0324 CH2           1 RES     
    1659 CH2         26.9639     3.4500   -17.7748 CH2           1 RES     
    1660 CH2         27.0985     4.3285   -16.5172 CH2           1 RES     
    1661 CH2         26.9639     3.4500   -15.2596 CH2           1 RES     
    1662 CH2         27.0985     4.3285   -14.0019 CH2           1 RES     
    1663 CH2         26.9639     3.4500   -12.7443 CH2           1 RES     
    1664 CH2         27.0985     4.3285   -11.4867 CH2           1 RES     
    1665 CH2         26.9639     3.4500   -10.2291 CH2           1 RES     
    1666 CH2         27.0985     4.3285    -8.9714 CH2           1 RES     
    1667 CH2         26.9639     3.4500    -7.7138 CH2           1 RES     
    1668 CH2         27.0985     4.3285    -6.4562 CH2           1 RES     
    1669 O           27.2563     5.4772   -23.9780 O             1 RES     
    1670 C           27.0792     4.2600   -23.9780 C             1 RES     
    1671 OA          26.9654     3.5617   -25.1101 OA            1 RES     
    1672 H           27.0465     4.1736   -25.8455 H             1 RES     
    1673 CH3         16.8062     4.3885   -24.0058 CH3           1 RES     
    1674 CH2         17.1513     3.6134   -22.8053 CH2           1 RES     
    1675 CH2         16.7898     4.4254   -21.5477 CH2           1 RES     
    1676 CH2         17.1513     3.6134   -20.2901 CH2           1 RES     
    1677 CH2         16.7898     4.4254   -19.0324 CH2           1 RES     
    1678 CH2         17.1513     3.6134   -17.7748 CH2           1 RES     
    1679 CH2         16.7898     4.4254   -16.5172 CH2           1 RES     
    1680 CH2         17.1513     3.6134   -15.2596 CH2           1 RES     
    1681 CH2         16.7898     4.4254   -14.0019 CH2           1 RES     
    1682 CH2         17.1513     3.6134   -12.7443 CH2           1 RES     
    1683 CH2         16.7898     4.4254   -11.4867 CH2           1 RES     
    1684 CH2         17.1513     3.6134   -10.2291 CH2           1 RES     
    1685 CH2         16.7898     4.4254    -8.9714 CH2           1 RES     
    1686 CH2         17.1513     3.6134    -7.7138 CH2           1 RES     
    1687 CH2         16.7898     4.4254    -6.4562 CH2           1 RES     
    1688 O           16.3018     5.4772   -23.9780 O             1 RES     
    1689 C           16.8106     4.3574   -23.9780 C             1 RES     
    1690 OA          17.0922     3.7083   -25.1101 OA            1 RES     
    1691 H           16.8298     4.2669   -25.8455 H             1 RES     
    1692 CH3         37.6459    37.2820   -24.0058 CH3           1 RES     
    1693 CH2         37.2353    36.5395   -22.8053 CH2           1 RES     
    1694 CH2         37.6654    37.3173   -21.5477 CH2           1 RES     
    1695 CH2         37.2353    36.5395   -20.2901 CH2           1 RES     
    1696 CH2         37.6654    37.3173   -19.0324 CH2           1 RES     
    1697 CH2         37.2353    36.5395   -17.7748 CH2           1 RES     
    1698 CH2         37.6654    37.3173   -16.5172 CH2           1 RES     
    1699 CH2         37.2353    36.5395   -15.2596 CH2           1 RES     
    1700 CH2         37.6654    37.3173   -14.0019 CH2           1 RES     
    1701 CH2         37.2353    36.5395   -12.7443 CH2           1 RES     
    1702 CH2         37.6654    37.3173   -11.4867 CH2           1 RES     
    1703 CH2         37.2353    36.5395   -10.2291 CH2           1 RES     
    1704 CH2         37.6654    37.3173    -8.9714 CH2           1 RES     
    1705 CH2         37.2353    36.5395    -7.7138 CH2           1 RES     
    1706 CH2         37.6654    37.3173    -6.4562 CH2           1 RES     
    1707 O           38.2107    38.3406   -23.9780 O             1 RES     
    1708 C           37.6237    37.2597   -23.9780 C             1 RES     
    1709 OA          37.2754    36.6439   -25.1101 OA            1 RES     
    1710 H           37.5631    37.1899   -25.8455 H             1 RES     
    1711 CH3          0.2791    31.7353   -24.0058 CH3           1 RES     
    1712 CH2          0.5563    30.9335   -22.8053 CH2           1 RES     
    1713 CH2          0.2659    31.7735   -21.5477 CH2           1 RES     
    1714 CH2          0.5563    30.9335   -20.2901 CH2           1 RES     
    1715 CH2          0.2659    31.7735   -19.0324 CH2           1 RES     
    1716 CH2          0.5563    30.9335   -17.7748 CH2           1 RES     
    1717 CH2          0.2659    31.7735   -16.5172 CH2           1 RES     
    1718 CH2          0.5563    30.9335   -15.2596 CH2           1 RES     
    1719 CH2          0.2659    31.7735   -14.0019 CH2           1 RES     
    1720 CH2          0.5563    30.9335   -12.7443 CH2           1 RES     
    1721 CH2          0.2659    31.7735   -11.4867 CH2           1 RES     
    1722 CH2          0.5563    30.9335   -10.2291 CH2           1 RES     
    1723 CH2          0.2659    31.7735    -8.9714 CH2           1 RES     
    1724 CH2          0.5563    30.9335    -7.7138 CH2           1 RES     
    1725 CH2          0.2659    31.7735    -6.4562 CH2           1 RES     
    1726 O           -0.1299    32.8634   -23.9780 O             1 RES     
    1727 C            0.2808    31.7039   -23.9780 C             1 RES     
    1728 OA           0.5056    31.0331   -25.1101 OA            1 RES     
    1729 H            0.2922    31.6122   -25.8455 H             1 RES     
    1730 CH3         27.4357     9.7680   -24.0058 CH3           1 RES     
    1731 CH2         27.5500     8.9274   -22.8053 CH2           1 RES     
    1732 CH2         27.4302     9.8081   -21.5477 CH2           1 RES     
    1733 CH2         27.5500     8.9274   -20.2901 CH2           1 RES     
    1734 CH2         27.4302     9.8081   -19.0324 CH2           1 RES     
    1735 CH2         27.5500     8.9274   -17.7748 CH2           1 RES     
    1736 CH2         27.4302     9.8081   -16.5172 CH2           1 RES     
    1737 CH2         27.5500     8.9274   -15.2596 CH2           1 RES     
    1738 CH2         27.4302     9.8081   -14.0019 CH2           1 RES     
    1739 CH2         27.5500     8.9274   -12.7443 CH2           1 RES     
    1740 CH2         27.4302     9.8081   -11.4867 CH2           1 RES     
    1741 CH2         27.5500     8.9274   -10.2291 CH2           1 RES     
    1742 CH2         27.4302     9.8081    -8.9714 CH2           1 RES     
    1743 CH2         27.5500     8.9274    -7.7138 CH2           1 RES     
    1744 CH2         27.4302     9.8081    -6.4562 CH2           1 RES     
    1745 O           27.2563    10.9545   -23.9780 O             1 RES     
    1746 C           27.4312     9.7369   -23.9780 C             1 RES     
    1747 OA          27.5198     9.0350   -25.1101 OA            1 RES     
    1748 H           27.4242     9.6447   -25.8455 H             1 RES     
    1749 CH3         32.8070    -1.1976   -24.0058 CH3           1 RES     
    1750 CH2         32.8463    -2.0451   -22.8053 CH2           1 RES     
    1751 CH2         32.8051    -1.1573   -21.5477 CH2           1 RES     
    1752 CH2         32.8463    -2.0451   -20.2901 CH2           1 RES     
    1753 CH2         32.8051    -1.1573   -19.0324 CH2           1 RES     
    1754 CH2         32.8463    -2.0451   -17.7748 CH2           1 RES     
    1755 CH2         32.8051    -1.1573   -16.5172 CH2           1 RES     
    1756 CH2         32.8463    -2.0451   -15.2596 CH2           1 RES     
    1757 CH2         32.8051    -1.1573   -14.0019 CH2           1 RES     
    1758 CH2         32.8463    -2.0451   -12.7443 CH2           1 RES     
    1759 CH2         32.8051    -1.1573   -11.4867 CH2           1 RES     
    1760 CH2         32.8463    -2.0451   -10.2291 CH2           1 RES     
    1761 CH2         32.8051    -1.1573    -8.9714 CH2           1 RES     
    1762 CH2         32.8463    -2.0451    -7.7138 CH2           1 RES     
    1763 CH2         32.8051    -1.1573    -6.4562 CH2           1 RES     
    1764 O           32.7335    -0.0000   -23.9780 O             1 RES     
    1765 C           32.7998    -1.2282   -23.9780 C             1 RES     
    1766 OA          32.8258    -1.9352   -25.1101 OA            1 RES     
    1767 H           32.7847    -1.3194   -25.8455 H             1 RES     
    1768 CH3         10.5816     4.3022   -24.0058 CH3           1 RES     
    1769 CH2         10.3974     3.4740   -22.8053 CH2           1 RES     
    1770 CH2         10.5904     4.3416   -21.5477 CH2           1 RES     
    1771 CH2         10.3974     3.4740   -20.2901 CH2           1 RES     
    1772 CH2         10.5904     4.3416   -19.0324 CH2           1 RES     
    1773 CH2         10.3974     3.4740   -17.7748 CH2           1 RES     
    1774 CH2         10.5904     4.3416   -16.5172 CH2           1 RES     
    1775 CH2         10.3974     3.4740   -15.2596 CH2           1 RES     
    1776 CH2         10.5904     4.3416   -14.0019 CH2           1 RES     
    1777 CH2         10.3974     3.4740   -12.7443 CH2           1 RES     
    1778 CH2         10.5904     4.3416   -11.4867 CH2           1 RES     
    1779 CH2         10.3974     3.4740   -10.2291 CH2           1 RES     
    1780 CH2         10.5904     4.3416    -8.9714 CH2           1 RES     
    1781 CH2         10.3974     3.4740    -7.7138 CH2           1 RES     
    1782 CH2         10.5904     4.3416    -6.4562 CH2           1 RES     
    1783 O           10.8246     5.4772   -23.9780 O             1 RES     
    1784 C           10.5666     4.2746   -23.9780 C             1 RES     
    1785 OA          10.4064     3.5855   -25.1101 OA            1 RES     
    1786 H           10.5281     4.1905   -25.8455 H             1 RES     
    1787 CH3         38.0010    -1.1814   -24.0058 CH3           1 RES     
    1788 CH2         37.8402    -2.0145   -22.8053 CH2           1 RES     
    1789 CH2         38.0087    -1.1418   -21.5477 CH2           1 RES     
    1790 CH2         37.8402    -2.0145   -20.2901 CH2           1 RES     
    1791 CH2         38.0087    -1.1418   -19.0324 CH2           1 RES     
    1792 CH2         37.8402    -2.0145   -17.7748 CH2           1 RES     
    1793 CH2         38.0087    -1.1418   -16.5172 CH2           1 RES     
    1794 CH2         37.8402    -2.0145   -15.2596 CH2           1 RES     
    1795 CH2         38.0087    -1.1418   -14.0019 CH2           1 RES     
    1796 CH2         37.8402    -2.0145   -12.7443 CH2           1 RES     
    1797 CH2         38.0087    -1.1418   -11.4867 CH2           1 RES     
    1798 CH2         37.8402    -2.0145   -10.2291 CH2           1 RES     
    1799 CH2         38.0087    -1.1418    -8.9714 CH2           1 RES     
    1800 CH2         37.8402    -2.0145    -7.7138 CH2           1 RES     
    1801 CH2         38.0087    -1.1418    -6.4562 CH2           1 RES     
    1802 O           38.2107    -0.0000   -23.9780 O             1 RES     
    1803 C           37.9868    -1.2094   -23.9780 C             1 RES     
    1804 OA          37.8461    -1.9028   -25.1101 OA            1 RES     
    1805 H           37.9507    -1.2946   -25.8455 H             1 RES     
    1806 CH3         16.0119     9.7901   -24.0058 CH3           1 RES     
    1807 CH2         15.7947     8.9700   -22.8053 CH2           1 RES     
    1808 CH2         16.0223     9.8292   -21.5477 CH2           1 RES     
    1809 CH2         15.7947     8.9700   -20.2901 CH2           1 RES     
    1810 CH2         16.0223     9.8292   -19.0324 CH2           1 RES     
    1811 CH2         15.7947     8.9700   -17.7748 CH2           1 RES     
    1812 CH2         16.0223     9.8292   -16.5172 CH2           1 RES     
    1813 CH2         15.7947     8.9700   -15.2596 CH2           1 RES     
    1814 CH2         16.0223     9.8292   -14.0019 CH2           1 RES     
    1815 CH2         15.7947     8.9700   -12.7443 CH2           1 RES     
    1816 CH2         16.0223     9.8292   -11.4867 CH2           1 RES     
    1817 CH2         15.7947     8.9700   -10.2291 CH2           1 RES     
    1818 CH2         16.0223     9.8292    -8.9714 CH2           1 RES     
    1819 CH2         15.7947     8.9700    -7.7138 CH2           1 RES     
    1820 CH2         16.0223     9.8292    -6.4562 CH2           1 RES     
    1821 O           16.3018    10.9545   -23.9780 O             1 RES     
    1822 C           15.9959     9.7631   -23.9780 C             1 RES     
    1823 OA          15.8082     9.0810   -25.1101 OA            1 RES     
    1824 H           15.9541     9.6806   -25.8455 H             1 RES     
    1825 CH3         -0.6257    15.3390   -24.0058 CH3           1 RES     
    1826 CH2         -0.9877    14.5718   -22.8053 CH2           1 RES     
    1827 CH2         -0.6084    15.3755   -21.5477 CH2           1 RES     
    1828 CH2         -0.9877    14.5718   -20.2901 CH2           1 RES     
    1829 CH2         -0.6084    15.3755   -19.0324 CH2           1 RES     
    1830 CH2         -0.9877    14.5718   -17.7748 CH2           1 RES     
    1831 CH2         -0.6084    15.3755   -16.5172 CH2           1 RES     
    1832 CH2         -0.9877    14.5718   -15.2596 CH2           1 RES     
    1833 CH2         -0.6084    15.3755   -14.0019 CH2           1 RES     
    1834 CH2         -0.9877    14.5718   -12.7443 CH2           1 RES     
    1835 CH2         -0.6084    15.3755   -11.4867 CH2           1 RES     
    1836 CH2         -0.9877    14.5718   -10.2291 CH2           1 RES     
    1837 CH2         -0.6084    15.3755    -8.9714 CH2           1 RES     
    1838 CH2         -0.9877    14.5718    -7.7138 CH2           1 RES     
    1839 CH2         -0.6084    15.3755    -6.4562 CH2           1 RES     
    1840 O           -0.1299    16.4317   -23.9780 O             1 RES     
    1841 C           -0.6464    15.3154   -23.9780 C             1 RES     
    1842 OA          -0.9544    14.6785   -25.1101 OA            1 RES     
    1843 H           -0.7024    15.2418   -25.8455 H             1 RES     
    1844 CH3         16.3776    31.6659   -24.0058 CH3           1 RES     
    1845 CH2         16.4185    30.8184   -22.8053 CH2           1 RES     
    1846 CH2         16.3756    31.7062   -21.5477 CH2           1 RES     
    1847 CH2         16.4185    30.8184   -20.2901 CH2           1 RES     
    1848 CH2         16.3756    31.7062   -19.0324 CH2           1 RES     
    1849 CH2         16.4185    30.8184   -17.7748 CH2           1 RES     
    1850 CH2         16.3756    31.7062   -16.5172 CH2           1 RES     
    1851 CH2         16.4185    30.8184   -15.2596 CH2           1 RES     
    1852 CH2         16.3756    31.7062   -14.0019 CH2           1 RES     
    1853 CH2         16.4185    30.8184   -12.7443 CH2           1 RES     
    1854 CH2         16.3756    31.7062   -11.4867 CH2           1 RES     
    1855 CH2         16.4185    30.8184   -10.2291 CH2           1 RES     
    1856 CH2         16.3756    31.7062    -8.9714 CH2           1 RES     
    1857 CH2         16.4185    30.8184    -7.7138 CH2           1 RES     
    1858 CH2         16.3756    31.7062    -6.4562 CH2           1 RES     
    1859 O           16.3018    32.8634   -23.9780 O             1 RES     
    1860 C           16.3704    31.6353   -23.9780 C             1 RES     
    1861 OA          16.3977    30.9283   -25.1101 OA            1 RES     
    1862 H           16.3555    31.5440   -25.8455 H             1 RES     
    1863 CH3         10.7159    -1.1950   -24.0058 CH3           1 RES     
    1864 CH2         10.6264    -2.0386   -22.8053 CH2           1 RES     
    1865 CH2         10.7201    -1.1548   -21.5477 CH2           1 RES     
    1866 CH2         10.6264    -2.0386   -20.2901 CH2           1 RES     
    1867 CH2         10.7201    -1.1548   -19.0324 CH2           1 RES     
    1868 CH2         10.6264    -2.0386   -17.7748 CH2           1 RES     
    1869 CH2         10.7201    -1.1548   -16.5172 CH2           1 RES     
    1870 CH2         10.6264    -2.0386   -15.2596 CH2           1 RES     
    1871 CH2         10.7201    -1.1548   -14.0019 CH2           1 RES     
    1872 CH2         10.6264    -2.0386   -12.7443 CH2           1 RES     
    1873 CH2         10.7201    -1.1548   -11.4867 CH2           1 RES     
    1874 CH2         10.6264    -2.0386   -10.2291 CH2           1 RES     
    1875 CH2         10.7201    -1.1548    -8.9714 CH2           1 RES     
    1876 CH2         10.6264    -2.0386    -7.7138 CH2           1 RES     
    1877 CH2         10.7201    -1.1548    -6.4562 CH2           1 RES     
    1878 O           10.8246    -0.0000   -23.9780 O             1 RES     
    1879 C           10.7041    -1.2241   -23.9780 C             1 RES     
    1880 OA          10.6227    -1.9269   -25.1101 OA            1 RES     
    1881 H           10.6754    -1.3120   -25.8455 H             1 RES     
    1882 CH3         21.3742    31.7338   -24.0058 CH3           1 RES     
    1883 CH2         21.0761    30.9395   -22.8053 CH2           1 RES     
    1884 CH2         21.3884    31.7716   -21.5477 CH2           1 RES     
    1885 CH2         21.0761    30.9395   -20.2901 CH2           1 RES     
    1886 CH2         21.3884    31.7716   -19.0324 CH2           1 RES     
    1887 CH2         21.0761    30.9395   -17.7748 CH2           1 RES     
    1888 CH2         21.3884    31.7716   -16.5172 CH2           1 RES     
    1889 CH2         21.0761    30.9395   -15.2596 CH2           1 RES     
    1890 CH2         21.3884    31.7716   -14.0019 CH2           1 RES     
    1891 CH2         21.0761    30.9395   -12.7443 CH2           1 RES     
    1892 CH2         21.3884    31.7716   -11.4867 CH2           1 RES     
    1893 CH2         21.0761    30.9395   -10.2291 CH2           1 RES     
    1894 CH2         21.3884    31.7716    -8.9714 CH2           1 RES     
    1895 CH2         21.0761    30.9395    -7.7138 CH2           1 RES     
    1896 CH2         21.3884    31.7716    -6.4562 CH2           1 RES     
    1897 O           21.7790    32.8634   -23.9780 O             1 RES     
    1898 C           21.3555    31.7086   -23.9780 C             1 RES     
    1899 OA          21.1006    31.0486   -25.1101 OA            1 RES     
    1900 H           21.3057    31.6307   -25.8455 H             1 RES     
    1901 CH3         38.6280    26.2611   -24.0058 CH3           1 RES     
    1902 CH2         38.9111    25.4614   -22.8053 CH2           1 RES     
    1903 CH2         38.6145    26.2992   -21.5477 CH2           1 RES     
    1904 CH2         38.9111    25.4614   -20.2901 CH2           1 RES     
    1905 CH2         38.6145    26.2992   -19.0324 CH2           1 RES     
    1906 CH2         38.9111    25.4614   -17.7748 CH2           1 RES     
    1907 CH2         38.6145    26.2992   -16.5172 CH2           1 RES     
    1908 CH2         38.9111    25.4614   -15.2596 CH2           1 RES     
    1909 CH2         38.6145    26.2992   -14.0019 CH2           1 RES     
    1910 CH2         38.9111    25.4614   -12.7443 CH2           1 RES     
    1911 CH2         38.6145    26.2992   -11.4867 CH2           1 RES     
    1912 CH2         38.9111    25.4614   -10.2291 CH2           1 RES     
    1913 CH2         38.6145    26.2992    -8.9714 CH2           1 RES     
    1914 CH2         38.9111    25.4614    -7.7138 CH2           1 RES     
    1915 CH2         38.6145    26.2992    -6.4562 CH2           1 RES     
    1916 O           38.2107    27.3861   -23.9780 O             1 RES     
    1917 C           38.6299    26.2298   -23.9780 C             1 RES     
    1918 OA          38.8597    25.5606   -25.1101 OA            1 RES     
    1919 H           38.6419    26.1381   -25.8455 H             1 RES     
    1920 CH3          5.3956    20.7100   -24.0058 CH3           1 RES     
    1921 CH2          5.4171    19.8618   -22.8053 CH2           1 RES     
    1922 CH2          5.3946    20.7504   -21.5477 CH2           1 RES     
    1923 CH2          5.4171    19.8618   -20.2901 CH2           1 RES     
    1924 CH2          5.3946    20.7504   -19.0324 CH2           1 RES     
    1925 CH2          5.4171    19.8618   -17.7748 CH2           1 RES     
    1926 CH2          5.3946    20.7504   -16.5172 CH2           1 RES     
    1927 CH2          5.4171    19.8618   -15.2596 CH2           1 RES     
    1928 CH2          5.3946    20.7504   -14.0019 CH2           1 RES     
    1929 CH2          5.4171    19.8618   -12.7443 CH2           1 RES     
    1930 CH2          5.3946    20.7504   -11.4867 CH2           1 RES     
    1931 CH2          5.4171    19.8618   -10.2291 CH2           1 RES     
    1932 CH2          5.3946    20.7504    -8.9714 CH2           1 RES     
    1933 CH2          5.4171    19.8618    -7.7138 CH2           1 RES     
    1934 CH2          5.3946    20.7504    -6.4562 CH2           1 RES     
    1935 O            5.3474    21.9089   -23.9780 O             1 RES     
    1936 C            5.3878    20.6796   -23.9780 C             1 RES     
    1937 OA           5.3989    19.9722   -25.1101 OA            1 RES     
    1938 H            5.3708    20.5887   -25.8455 H             1 RES     
    1939 CH3         33.1978     4.3708   -24.0058 CH3           1 RES     
    1940 CH2         33.5144     3.5837   -22.8053 CH2           1 RES     
    1941 CH2         33.1827     4.4083   -21.5477 CH2           1 RES     
    1942 CH2         33.5144     3.5837   -20.2901 CH2           1 RES     
    1943 CH2         33.1827     4.4083   -19.0324 CH2           1 RES     
    1944 CH2         33.5144     3.5837   -17.7748 CH2           1 RES     
    1945 CH2         33.1827     4.4083   -16.5172 CH2           1 RES     
    1946 CH2         33.5144     3.5837   -15.2596 CH2           1 RES     
    1947 CH2         33.1827     4.4083   -14.0019 CH2           1 RES     
    1948 CH2         33.5144     3.5837   -12.7443 CH2           1 RES     
    1949 CH2         33.1827     4.4083   -11.4867 CH2           1 RES     
    1950 CH2         33.5144     3.5837   -10.2291 CH2           1 RES     
    1951 CH2         33.1827     4.4083    -8.9714 CH2           1 RES     
    1952 CH2         33.5144     3.5837    -7.7138 CH2           1 RES     
    1953 CH2         33.1827     4.4083    -6.4562 CH2           1 RES     
    1954 O           32.7335     5.4772   -23.9780 O             1 RES     
    1955 C           33.2011     4.3396   -23.9780 C             1 RES     
    1956 OA          33.4588     3.6807   -25.1101 OA            1 RES     
    1957 H           33.2169     4.2485   -25.8455 H             1 RES     
    1958 CH3         38.0118    20.7256   -24.0058 CH3           1 RES     
    1959 CH2         37.8587    19.8911   -22.8053 CH2           1 RES     
    1960 CH2         38.0191    20.7653   -21.5477 CH2           1 RES     
    1961 CH2         37.8587    19.8911   -20.2901 CH2           1 RES     
    1962 CH2         38.0191    20.7653   -19.0324 CH2           1 RES     
    1963 CH2         37.8587    19.8911   -17.7748 CH2           1 RES     
    1964 CH2         38.0191    20.7653   -16.5172 CH2           1 RES     
    1965 CH2         37.8587    19.8911   -15.2596 CH2           1 RES     
    1966 CH2         38.0191    20.7653   -14.0019 CH2           1 RES     
    1967 CH2         37.8587    19.8911   -12.7443 CH2           1 RES     
    1968 CH2         38.0191    20.7653   -11.4867 CH2           1 RES     
    1969 CH2         37.8587    19.8911   -10.2291 CH2           1 RES     
    1970 CH2         38.0191    20.7653    -8.9714 CH2           1 RES     
    1971 CH2         37.8587    19.8911    -7.7138 CH2           1 RES     
    1972 CH2         38.0191    20.7653    -6.4562 CH2           1 RES     
    1973 O           38.2107    21.9089   -23.9780 O             1 RES     
    1974 C           37.9979    20.6975   -23.9780 C             1 RES     
    1975 OA          37.8636    20.0028   -25.1101 OA            1 RES     
    1976 H           37.9626    20.6120   -25.8455 H             1 RES     
    1977 CH3          5.1242    15.2527   -24.0058 CH3           1 RES     
    1978 CH2          4.9540    14.4216   -22.8053 CH2           1 RES     
    1979 CH2          5.1323    15.2923   -21.5477 CH2           1 RES     
    1980 CH2          4.9540    14.4216   -20.2901 CH2           1 RES     
    1981 CH2          5.1323    15.2923   -19.0324 CH2           1 RES     
    1982 CH2          4.9540    14.4216   -17.7748 CH2           1 RES     
    1983 CH2          5.1323    15.2923   -16.5172 CH2           1 RES     
    1984 CH2          4.9540    14.4216   -15.2596 CH2           1 RES     
    1985 CH2          5.1323    15.2923   -14.0019 CH2           1 RES     
    1986 CH2          4.9540    14.4216   -12.7443 CH2           1 RES     
    1987 CH2          5.1323    15.2923   -11.4867 CH2           1 RES     
    1988 CH2          4.9540    14.4216   -10.2291 CH2           1 RES     
    1989 CH2          5.1323    15.2923    -8.9714 CH2           1 RES     
    1990 CH2          4.9540    14.4216    -7.7138 CH2           1 RES     
    1991 CH2          5.1323    15.2923    -6.4562 CH2           1 RES     
    1992 O            5.3474    16.4317   -23.9780 O             1 RES     
    1993 C            5.1097    15.2249   -23.9780 C             1 RES     
    1994 OA           4.9611    14.5331   -25.1101 OA            1 RES     
    1995 H            5.0727    15.1401   -25.8455 H             1 RES     
    1996 CH3         10.8569    26.1867   -24.0058 CH3           1 RES     
    1997 CH2         10.8671    25.3383   -22.8053 CH2           1 RES     
    1998 CH2         10.8564    26.2271   -21.5477 CH2           1 RES     
    1999 CH2         10.8671    25.3383   -20.2901 CH2           1 RES     
    2000 CH2         10.8564    26.2271   -19.0324 CH2           1 RES     
    2001 CH2         10.8671    25.3383   -17.7748 CH2           1 RES     
    2002 CH2         10.8564    26.2271   -16.5172 CH2           1 RES     
    2003 CH2         10.8671    25.3383   -15.2596 CH2           1 RES     
    2004 CH2         10.8564    26.2271   -14.0019 CH2           1 RES     
    2005 CH2         10.8671    25.3383   -12.7443 CH2           1 RES     
    2006 CH2         10.8564    26.2271   -11.4867 CH2           1 RES     
    2007 CH2         10.8671    25.3383   -10.2291 CH2           1 RES     
    2008 CH2         10.8564    26.2271    -8.9714 CH2           1 RES     
    2009 CH2         10.8671    25.3383    -7.7138 CH2           1 RES     
    2010 CH2         10.8564    26.2271    -6.4562 CH2           1 RES     
    2011 O           10.8246    27.3861   -23.9780 O             1 RES     
    2012 C           10.8486    26.1564   -23.9780 C             1 RES     
    2013 OA          10.8504    25.4489   -25.1101 OA            1 RES     
    2014 H           10.8305    26.0657   -25.8455 H             1 RES     
    2015 CH3         22.2111    -1.1194   -24.0058 CH3           1 RES     
    2016 CH2         22.5048    -1.9154   -22.8053 CH2           1 RES     
    2017 CH2         22.1972    -1.0815   -21.5477 CH2           1 RES     
    2018 CH2         22.5048    -1.9154   -20.2901 CH2           1 RES     
    2019 CH2         22.1972    -1.0815   -19.0324 CH2           1 RES     
    2020 CH2         22.5048    -1.9154   -17.7748 CH2           1 RES     
    2021 CH2         22.1972    -1.0815   -16.5172 CH2           1 RES     
    2022 CH2         22.5048    -1.9154   -15.2596 CH2           1 RES     
    2023 CH2         22.1972    -1.0815   -14.0019 CH2           1 RES     
    2024 CH2         22.5048    -1.9154   -12.7443 CH2           1 RES     
    2025 CH2         22.1972    -1.0815   -11.4867 CH2           1 RES     
    2026 CH2         22.5048    -1.9154   -10.2291 CH2           1 RES     
    2027 CH2         22.1972    -1.0815    -8.9714 CH2           1 RES     
    2028 CH2         22.5048    -1.9154    -7.7138 CH2           1 RES     
    2029 CH2         22.1972    -1.0815    -6.4562 CH2           1 RES     
    2030 O           21.7790    -0.0000   -23.9780 O             1 RES     
    2031 C           22.2135    -1.1507   -23.9780 C             1 RES     
    2032 OA          22.4520    -1.8168   -25.1101 OA            1 RES     
    2033 H           22.2267    -1.2422   -25.8455 H             1 RES     
    2034 CH3          0.2248    -1.1463   -24.0058 CH3           1 RES     
    2035 CH2          0.4634    -1.9605   -22.8053 CH2           1 RES     
    2036 CH2          0.2134    -1.1075   -21.5477 CH2           1 RES     
    2037 CH2          0.4634    -1.9605   -20.2901 CH2           1 RES     
    2038 CH2          0.2134    -1.1075   -19.0324 CH2           1 RES     
    2039 CH2          0.4634    -1.9605   -17.7748 CH2           1 RES     
    2040 CH2          0.2134    -1.1075   -16.5172 CH2           1 RES     
    2041 CH2          0.4634    -1.9605   -15.2596 CH2           1 RES     
    2042 CH2          0.2134    -1.1075   -14.0019 CH2           1 RES     
    2043 CH2          0.4634    -1.9605   -12.7443 CH2           1 RES     
    2044 CH2          0.2134    -1.1075   -11.4867 CH2           1 RES     
    2045 CH2          0.4634    -1.9605   -10.2291 CH2           1 RES     
    2046 CH2          0.2134    -1.1075    -8.9714 CH2           1 RES     
    2047 CH2          0.4634    -1.9605    -7.7138 CH2           1 RES     
    2048 CH2          0.2134    -1.1075    -6.4562 CH2           1 RES     
    2049 O           -0.1299    -0.0000   -23.9780 O             1 RES     
    2050 C            0.2250    -1.1777   -23.9780 C             1 RES     
    2051 OA           0.4174    -1.8585   -25.1101 OA            1 RES     
    2052 H            0.2319    -1.2699   -25.8455 H             1 RES     
    2053 CH3         16.0277    15.2635   -24.0058 CH3           1 RES     
    2054 CH2         15.8216    14.4405   -22.8053 CH2           1 RES     
    2055 CH2         16.0376    15.3027   -21.5477 CH2           1 RES     
    2056 CH2         15.8216    14.4405   -20.2901 CH2           1 RES     
    2057 CH2         16.0376    15.3027   -19.0324 CH2           1 RES     
    2058 CH2         15.8216    14.4405   -17.7748 CH2           1 RES     
    2059 CH2         16.0376    15.3027   -16.5172 CH2           1 RES     
    2060 CH2         15.8216    14.4405   -15.2596 CH2           1 RES     
    2061 CH2         16.0376    15.3027   -14.0019 CH2           1 RES     
    2062 CH2         15.8216    14.4405   -12.7443 CH2           1 RES     
    2063 CH2         16.0376    15.3027   -11.4867 CH2           1 RES     
    2064 CH2         15.8216    14.4405   -10.2291 CH2           1 RES     
    2065 CH2         16.0376    15.3027    -8.9714 CH2           1 RES     
    2066 CH2         15.8216    14.4405    -7.7138 CH2           1 RES     
    2067 CH2         16.0376    15.3027    -6.4562 CH2           1 RES     
    2068 O           16.3018    16.4317   -23.9780 O             1 RES     
    2069 C           16.0120    15.2363   -23.9780 C             1 RES     
    2070 OA          15.8336    14.5517   -25.1101 OA            1 RES     
    2071 H           15.9713    15.1533   -25.8455 H             1 RES     
    2072 CH3         38.1702     9.7552   -24.0058 CH3           1 RES     
    2073 CH2         38.1290     8.9078   -22.8053 CH2           1 RES     
    2074 CH2         38.1722     9.7956   -21.5477 CH2           1 RES     
    2075 CH2         38.1290     8.9078   -20.2901 CH2           1 RES     
    2076 CH2         38.1722     9.7956   -19.0324 CH2           1 RES     
    2077 CH2         38.1290     8.9078   -17.7748 CH2           1 RES     
    2078 CH2         38.1722     9.7956   -16.5172 CH2           1 RES     
    2079 CH2         38.1290     8.9078   -15.2596 CH2           1 RES     
    2080 CH2         38.1722     9.7956   -14.0019 CH2           1 RES     
    2081 CH2         38.1290     8.9078   -12.7443 CH2           1 RES     
    2082 CH2         38.1722     9.7956   -11.4867 CH2           1 RES     
    2083 CH2         38.1290     8.9078   -10.2291 CH2           1 RES     
    2084 CH2         38.1722     9.7956    -8.9714 CH2           1 RES     
    2085 CH2         38.1290     8.9078    -7.7138 CH2           1 RES     
    2086 CH2         38.1722     9.7956    -6.4562 CH2           1 RES     
    2087 O           38.2107    10.9545   -23.9780 O             1 RES     
    2088 C           38.1601     9.7255   -23.9780 C             1 RES     
    2089 OA          38.1190     9.0192   -25.1101 OA            1 RES     
    2090 H           38.1365     9.6361   -25.8455 H             1 RES     
    2091 CH3         11.0050    37.1543   -24.0058 CH3           1 RES     
    2092 CH2         11.1200    36.3137   -22.8053 CH2           1 RES     
    2093 CH2         10.9995    37.1944   -21.5477 CH2           1 RES     
    2094 CH2         11.1200    36.3137   -20.2901 CH2           1 RES     
    2095 CH2         10.9995    37.1944   -19.0324 CH2           1 RES     
    2096 CH2         11.1200    36.3137   -17.7748 CH2           1 RES     
    2097 CH2         10.9995    37.1944   -16.5172 CH2           1 RES     
    2098 CH2         11.1200    36.3137   -15.2596 CH2           1 RES     
    2099 CH2         10.9995    37.1944   -14.0019 CH2           1 RES     
    2100 CH2         11.1200    36.3137   -12.7443 CH2           1 RES     
    2101 CH2         10.9995    37.1944   -11.4867 CH2           1 RES     
    2102 CH2         11.1200    36.3137   -10.2291 CH2           1 RES     
    2103 CH2         10.9995    37.1944    -8.9714 CH2           1 RES     
    2104 CH2         11.1200    36.3137    -7.7138 CH2           1 RES     
    2105 CH2         10.9995    37.1944    -6.4562 CH2           1 RES     
    2106 O           10.8246    38.3406   -23.9780 O             1 RES     
    2107 C           11.0005    37.1232   -23.9780 C             1 RES     
    2108 OA          11.0897    36.4214   -25.1101 OA            1 RES     
    2109 H           10.9937    37.0310   -25.8455 H             1 RES     
    2110 CH3          4.9717     4.3376   -24.0058 CH3           1 RES     
    2111 CH2          4.6941     3.5359   -22.8053 CH2           1 RES     
    2112 CH2          4.9850     4.3758   -21.5477 CH2           1 RES     
    2113 CH2          4.6941     3.5359   -20.2901 CH2           1 RES     
    2114 CH2          4.9850     4.3758   -19.0324 CH2           1 RES     
    2115 CH2          4.6941     3.5359   -17.7748 CH2           1 RES     
    2116 CH2          4.9850     4.3758   -16.5172 CH2           1 RES     
    2117 CH2          4.6941     3.5359   -15.2596 CH2           1 RES     
    2118 CH2          4.9850     4.3758   -14.0019 CH2           1 RES     
    2119 CH2          4.6941     3.5359   -12.7443 CH2           1 RES     
    2120 CH2          4.9850     4.3758   -11.4867 CH2           1 RES     
    2121 CH2          4.6941     3.5359   -10.2291 CH2           1 RES     
    2122 CH2          4.9850     4.3758    -8.9714 CH2           1 RES     
    2123 CH2          4.6941     3.5359    -7.7138 CH2           1 RES     
    2124 CH2          4.9850     4.3758    -6.4562 CH2           1 RES     
    2125 O            5.3474     5.4772   -23.9780 O             1 RES     
    2126 C            4.9537     4.3119   -23.9780 C             1 RES     
    2127 OA           4.7158     3.6456   -25.1101 OA            1 RES     
    2128 H            4.9059     4.2328   -25.8455 H             1 RES     
    2129 CH3         33.0039    31.6943   -24.0058 CH3           1 RES     
    2130 CH2         33.1828    30.8650   -22.8053 CH2           1 RES     
    2131 CH2         32.9954    31.7338   -21.5477 CH2           1 RES     
    2132 CH2         33.1828    30.8650   -20.2901 CH2           1 RES     
    2133 CH2         32.9954    31.7338   -19.0324 CH2           1 RES     
    2134 CH2         33.1828    30.8650   -17.7748 CH2           1 RES     
    2135 CH2         32.9954    31.7338   -16.5172 CH2           1 RES     
    2136 CH2         33.1828    30.8650   -15.2596 CH2           1 RES     
    2137 CH2         32.9954    31.7338   -14.0019 CH2           1 RES     
    2138 CH2         33.1828    30.8650   -12.7443 CH2           1 RES     
    2139 CH2         32.9954    31.7338   -11.4867 CH2           1 RES     
    2140 CH2         33.1828    30.8650   -10.2291 CH2           1 RES     
    2141 CH2         32.9954    31.7338    -8.9714 CH2           1 RES     
    2142 CH2         33.1828    30.8650    -7.7138 CH2           1 RES     
    2143 CH2         32.9954    31.7338    -6.4562 CH2           1 RES     
    2144 O           32.7335    32.8634   -23.9780 O             1 RES     
    2145 C           33.0019    31.6630   -23.9780 C             1 RES     
    2146 OA          33.1444    30.9700   -25.1101 OA            1 RES     
    2147 H           33.0021    31.5705   -25.8455 H             1 RES     
    2148 CH3          5.2124    31.6711   -24.0058 CH3           1 RES     
    2149 CH2          5.1043    30.8296   -22.8053 CH2           1 RES     
    2150 CH2          5.2175    31.7112   -21.5477 CH2           1 RES     
    2151 CH2          5.1043    30.8296   -20.2901 CH2           1 RES     
    2152 CH2          5.2175    31.7112   -19.0324 CH2           1 RES     
    2153 CH2          5.1043    30.8296   -17.7748 CH2           1 RES     
    2154 CH2          5.2175    31.7112   -16.5172 CH2           1 RES     
    2155 CH2          5.1043    30.8296   -15.2596 CH2           1 RES     
    2156 CH2          5.2175    31.7112   -14.0019 CH2           1 RES     
    2157 CH2          5.1043    30.8296   -12.7443 CH2           1 RES     
    2158 CH2          5.2175    31.7112   -11.4867 CH2           1 RES     
    2159 CH2          5.1043    30.8296   -10.2291 CH2           1 RES     
    2160 CH2          5.2175    31.7112    -8.9714 CH2           1 RES     
    2161 CH2          5.1043    30.8296    -7.7138 CH2           1 RES     
    2162 CH2          5.2175    31.7112    -6.4562 CH2           1 RES     
    2163 O            5.3474    32.8634   -23.9780 O             1 RES     
    2164 C            5.1999    31.6422   -23.9780 C             1 RES     
    2165 OA           5.1031    30.9414   -25.1101 OA            1 RES     
    2166 H            5.1693    31.5550   -25.8455 H             1 RES     
    2167 CH3          0.3903     9.8732   -24.0058 CH3           1 RES     
    2168 CH2          0.7467     9.1032   -22.8053 CH2           1 RES     
    2169 CH2          0.3734     9.9098   -21.5477 CH2           1 RES     
    2170 CH2          0.7467     9.1032   -20.2901 CH2           1 RES     
    2171 CH2          0.3734     9.9098   -19.0324 CH2           1 RES     
    2172 CH2          0.7467     9.1032   -17.7748 CH2           1 RES     
    2173 CH2          0.3734     9.9098   -16.5172 CH2           1 RES     
    2174 CH2          0.7467     9.1032   -15.2596 CH2           1 RES     
    2175 CH2          0.3734     9.9098   -14.0019 CH2           1 RES     
    2176 CH2          0.7467     9.1032   -12.7443 CH2           1 RES     
    2177 CH2          0.3734     9.9098   -11.4867 CH2           1 RES     
    2178 CH2          0.7467     9.1032   -10.2291 CH2           1 RES     
    2179 CH2          0.3734     9.9098    -8.9714 CH2           1 RES     
    2180 CH2          0.7467     9.1032    -7.7138 CH2           1 RES     
    2181 CH2          0.3734     9.9098    -6.4562 CH2           1 RES     
    2182 O           -0.1299    10.9545   -23.9780 O             1 RES     
    2183 C            0.3952     9.8421   -23.9780 C             1 RES     
    2184 OA           0.6862     9.1973   -25.1101 OA            1 RES     
    2185 H            0.4157     9.7520   -25.8455 H             1 RES     
    2186 CH3         -0.3819    37.1674   -24.0058 CH3           1 RES     
    2187 CH2         -0.5724    36.3407   -22.8053 CH2           1 RES     
    2188 CH2         -0.3728    37.2068   -21.5477 CH2           1 RES     
    2189 CH2         -0.5724    36.3407   -20.2901 CH2           1 RES     
    2190 CH2         -0.3728    37.2068   -19.0324 CH2           1 RES     
    2191 CH2         -0.5724    36.3407   -17.7748 CH2           1 RES     
    2192 CH2         -0.3728    37.2068   -16.5172 CH2           1 RES     
    2193 CH2         -0.5724    36.3407   -15.2596 CH2           1 RES     
    2194 CH2         -0.3728    37.2068   -14.0019 CH2           1 RES     
    2195 CH2         -0.5724    36.3407   -12.7443 CH2           1 RES     
    2196 CH2         -0.3728    37.2068   -11.4867 CH2           1 RES     
    2197 CH2         -0.5724    36.3407   -10.2291 CH2           1 RES     
    2198 CH2         -0.3728    37.2068    -8.9714 CH2           1 RES     
    2199 CH2         -0.5724    36.3407    -7.7138 CH2           1 RES     
    2200 CH2         -0.3728    37.2068    -6.4562 CH2           1 RES     
    2201 O           -0.1299    38.3406   -23.9780 O             1 RES     
    2202 C           -0.3971    37.1400   -23.9780 C             1 RES     
    2203 OA          -0.5625    36.4521   -25.1101 OA            1 RES     
    2204 H           -0.4362    37.0562   -25.8455 H             1 RES     
    2205 CH3         33.2919    26.3241   -24.0058 CH3           1 RES     
    2206 CH2         33.6755    25.5673   -22.8053 CH2           1 RES     
    2207 CH2         33.2736    26.3601   -21.5477 CH2           1 RES     
    2208 CH2         33.6755    25.5673   -20.2901 CH2           1 RES     
    2209 CH2         33.2736    26.3601   -19.0324 CH2           1 RES     
    2210 CH2         33.6755    25.5673   -17.7748 CH2           1 RES     
    2211 CH2         33.2736    26.3601   -16.5172 CH2           1 RES     
    2212 CH2         33.6755    25.5673   -15.2596 CH2           1 RES     
    2213 CH2         33.2736    26.3601   -14.0019 CH2           1 RES     
    2214 CH2         33.6755    25.5673   -12.7443 CH2           1 RES     
    2215 CH2         33.2736    26.3601   -11.4867 CH2           1 RES     
    2216 CH2         33.6755    25.5673   -10.2291 CH2           1 RES     
    2217 CH2         33.2736    26.3601    -8.9714 CH2           1 RES     
    2218 CH2         33.6755    25.5673    -7.7138 CH2           1 RES     
    2219 CH2         33.2736    26.3601    -6.4562 CH2           1 RES     
    2220 O           32.7335    27.3861   -23.9780 O             1 RES     
    2221 C           33.2978    26.2932   -23.9780 C             1 RES     
    2222 OA          33.6117    25.6591   -25.1101 OA            1 RES     
    2223 H           33.3215    26.2039   -25.8455 H             1 RES     
    2224 CH3         27.4827    20.7306   -24.0058 CH3           1 RES     
    2225 CH2         27.6304    19.8951   -22.8053 CH2           1 RES     
    2226 CH2         27.4757    20.7704   -21.5477 CH2           1 RES     
    2227 CH2         27.6304    19.8951   -20.2901 CH2           1 RES     
    2228 CH2         27.4757    20.7704   -19.0324 CH2           1 RES     
    2229 CH2         27.6304    19.8951   -17.7748 CH2           1 RES     
    2230 CH2         27.4757    20.7704   -16.5172 CH2           1 RES     
    2231 CH2         27.6304    19.8951   -15.2596 CH2           1 RES     
    2232 CH2         27.4757    20.7704   -14.0019 CH2           1 RES     
    2233 CH2         27.6304    19.8951   -12.7443 CH2           1 RES     
    2234 CH2         27.4757    20.7704   -11.4867 CH2           1 RES     
    2235 CH2         27.6304    19.8951   -10.2291 CH2           1 RES     
    2236 CH2         27.4757    20.7704    -8.9714 CH2           1 RES     
    2237 CH2         27.6304    19.8951    -7.7138 CH2           1 RES     
    2238 CH2         27.4757    20.7704    -6.4562 CH2           1 RES     
    2239 O           27.2563    21.9089   -23.9780 O             1 RES     
    2240 C           27.4795    20.6993   -23.9780 C             1 RES     
    2241 OA          27.5960    20.0015   -25.1101 OA            1 RES     
    2242 H           27.4762    20.6069   -25.8455 H             1 RES     
    2243 CH3         22.3310     9.8890   -24.0058 CH3           1 RES     
    2244 CH2         22.7099     9.1300   -22.8053 CH2           1 RES     
    2245 CH2         22.3129     9.9252   -21.5477 CH2           1 RES     
    2246 CH2         22.7099     9.1300   -20.2901 CH2           1 RES     
    2247 CH2         22.3129     9.9252   -19.0324 CH2           1 RES     
    2248 CH2         22.7099     9.1300   -17.7748 CH2           1 RES     
    2249 CH2         22.3129     9.9252   -16.5172 CH2           1 RES     
    2250 CH2         22.7099     9.1300   -15.2596 CH2           1 RES     
    2251 CH2         22.3129     9.9252   -14.0019 CH2           1 RES     
    2252 CH2         22.7099     9.1300   -12.7443 CH2           1 RES     
    2253 CH2         22.3129     9.9252   -11.4867 CH2           1 RES     
    2254 CH2         22.7099     9.1300   -10.2291 CH2           1 RES     
    2255 CH2         22.3129     9.9252    -8.9714 CH2           1 RES     
    2256 CH2         22.7099     9.1300    -7.7138 CH2           1 RES     
    2257 CH2         22.3129     9.9252    -6.4562 CH2           1 RES     
    2258 O           21.7790    10.9545   -23.9780 O             1 RES     
    2259 C           22.3367     9.8581   -23.9780 C             1 RES     
    2260 OA          22.6467     9.2222   -25.1101 OA            1 RES     
    2261 H           22.3599     9.7686   -25.8455 H             1 RES     
    2262 CH3         16.7867    37.2430   -24.0058 CH3           1 RES     
    2263 CH2         17.1180    36.4620   -22.8053 CH2           1 RES     
    2264 CH2         16.7710    37.2802   -21.5477 CH2           1 RES     
    2265 CH2         17.1180    36.4620   -20.2901 CH2           1 RES     
    2266 CH2         16.7710    37.2802   -19.0324 CH2           1 RES     
    2267 CH2         17.1180    36.4620   -17.7748 CH2           1 RES     
    2268 CH2         16.7710    37.2802   -16.5172 CH2           1 RES     
    2269 CH2         17.1180    36.4620   -15.2596 CH2           1 RES     
    2270 CH2         16.7710    37.2802   -14.0019 CH2           1 RES     
    2271 CH2         17.1180    36.4620   -12.7443 CH2           1 RES     
    2272 CH2         16.7710    37.2802   -11.4867 CH2           1 RES     
    2273 CH2         17.1180    36.4620   -10.2291 CH2           1 RES     
    2274 CH2         16.7710    37.2802    -8.9714 CH2           1 RES     
    2275 CH2         17.1180    36.4620    -7.7138 CH2           1 RES     
    2276 CH2         16.7710    37.2802    -6.4562 CH2           1 RES     
    2277 O           16.3018    38.3406   -23.9780 O             1 RES     
    2278 C           16.7906    37.2119   -23.9780 C             1 RES     
    2279 OA          17.0605    36.5579   -25.1101 OA            1 RES     
    2280 H           16.8081    37.1211   -25.8455 H             1 RES     
    2281 CH3          0.3509    20.8095   -24.0058 CH3           1 RES     
    2282 CH2          0.6791    20.0272   -22.8053 CH2           1 RES     
    2283 CH2          0.3352    20.8468   -21.5477 CH2           1 RES     
    2284 CH2          0.6791    20.0272   -20.2901 CH2           1 RES     
    2285 CH2          0.3352    20.8468   -19.0324 CH2           1 RES     
    2286 CH2          0.6791    20.0272   -17.7748 CH2           1 RES     
    2287 CH2          0.3352    20.8468   -16.5172 CH2           1 RES     
    2288 CH2          0.6791    20.0272   -15.2596 CH2           1 RES     
    2289 CH2          0.3352    20.8468   -14.0019 CH2           1 RES     
    2290 CH2          0.6791    20.0272   -12.7443 CH2           1 RES     
    2291 CH2          0.3352    20.8468   -11.4867 CH2           1 RES     
    2292 CH2          0.6791    20.0272   -10.2291 CH2           1 RES     
    2293 CH2          0.3352    20.8468    -8.9714 CH2           1 RES     
    2294 CH2          0.6791    20.0272    -7.7138 CH2           1 RES     
    2295 CH2          0.3352    20.8468    -6.4562 CH2           1 RES     
    2296 O           -0.1299    21.9089   -23.9780 O             1 RES     
    2297 C            0.3546    20.7783   -23.9780 C             1 RES     
    2298 OA           0.6221    20.1233   -25.1101 OA            1 RES     
    2299 H            0.3718    20.6875   -25.8455 H             1 RES     
    2300 CH3         10.7268     9.7586   -24.0058 CH3           1 RES     
    2301 CH2         10.6450     8.9141   -22.8053 CH2           1 RES     
    2302 CH2         10.7307     9.7988   -21.5477 CH2           1 RES     
    2303 CH2         10.6450     8.9141   -20.2901 CH2           1 RES     
    2304 CH2         10.7307     9.7988   -19.0324 CH2           1 RES     
    2305 CH2         10.6450     8.9141   -17.7748 CH2           1 RES     
    2306 CH2         10.7307     9.7988   -16.5172 CH2           1 RES     
    2307 CH2         10.6450     8.9141   -15.2596 CH2           1 RES     
    2308 CH2         10.7307     9.7988   -14.0019 CH2           1 RES     
    2309 CH2         10.6450     8.9141   -12.7443 CH2           1 RES     
    2310 CH2         10.7307     9.7988   -11.4867 CH2           1 RES     
    2311 CH2         10.6450     8.9141   -10.2291 CH2           1 RES     
    2312 CH2         10.7307     9.7988    -8.9714 CH2           1 RES     
    2313 CH2         10.6450     8.9141    -7.7138 CH2           1 RES     
    2314 CH2         10.7307     9.7988    -6.4562 CH2           1 RES     
    2315 O           10.8246    10.9545   -23.9780 O             1 RES     
    2316 C           10.7153     9.7293   -23.9780 C             1 RES     
    2317 OA          10.6403     9.0258   -25.1101 OA            1 RES     
    2318 H           10.6873     9.6412   -25.8455 H             1 RES     
    2319 CH3         -0.1583    26.1866   -24.0058 CH3           1 RES     
    2320 CH2         -0.1910    25.3388   -22.8053 CH2           1 RES     
    2321 CH2         -0.1567    26.2269   -21.5477 CH2           1 RES     
    2322 CH2         -0.1910    25.3388   -20.2901 CH2           1 RES     
    2323 CH2         -0.1567    26.2269   -19.0324 CH2           1 RES     
    2324 CH2         -0.1910    25.3388   -17.7748 CH2           1 RES     
    2325 CH2         -0.1567    26.2269   -16.5172 CH2           1 RES     
    2326 CH2         -0.1910    25.3388   -15.2596 CH2           1 RES     
    2327 CH2         -0.1567    26.2269   -14.0019 CH2           1 RES     
    2328 CH2         -0.1910    25.3388   -12.7443 CH2           1 RES     
    2329 CH2         -0.1567    26.2269   -11.4867 CH2           1 RES     
    2330 CH2         -0.1910    25.3388   -10.2291 CH2           1 RES     
    2331 CH2         -0.1567    26.2269    -8.9714 CH2           1 RES     
    2332 CH2         -0.1910    25.3388    -7.7138 CH2           1 RES     
    2333 CH2         -0.1567    26.2269    -6.4562 CH2           1 RES     
    2334 O           -0.1299    27.3861   -23.9780 O             1 RES     
    2335 C           -0.1681    26.1567   -23.9780 C             1 RES     
    2336 OA          -0.2022    25.4500   -25.1101 OA            1 RES     
    2337 H           -0.1908    26.0671   -25.8455 H             1 RES     
    2338 CH3          5.2369    37.1458   -24.0058 CH3           1 RES     
    2339 CH2          5.1461    36.3022   -22.8053 CH2           1 RES     
    2340 CH2          5.2412    37.1860   -21.5477 CH2           1 RES     
    2341 CH2          5.1461    36.3022   -20.2901 CH2           1 RES     
    2342 CH2          5.2412    37.1860   -19.0324 CH2           1 RES     
    2343 CH2          5.1461    36.3022   -17.7748 CH2           1 RES     
    2344 CH2          5.2412    37.1860   -16.5172 CH2           1 RES     
    2345 CH2          5.1461    36.3022   -15.2596 CH2           1 RES     
    2346 CH2          5.2412    37.1860   -14.0019 CH2           1 RES     
    2347 CH2          5.1461    36.3022   -12.7443 CH2           1 RES     
    2348 CH2          5.2412    37.1860   -11.4867 CH2           1 RES     
    2349 CH2          5.1461    36.3022   -10.2291 CH2           1 RES     
    2350 CH2          5.2412    37.1860    -8.9714 CH2           1 RES     
    2351 CH2          5.1461    36.3022    -7.7138 CH2           1 RES     
    2352 CH2          5.2412    37.1860    -6.4562 CH2           1 RES     
    2353 O            5.3474    38.3406   -23.9780 O             1 RES     
    2354 C            5.2250    37.1167   -23.9780 C             1 RES     
    2355 OA           5.1427    36.4140   -25.1101 OA            1 RES     
    2356 H            5.1962    37.0288   -25.8455 H             1 RES     
    2357 CH3         10.7872    31.6640   -24.0058 CH3           1 RES     
    2358 CH2         10.7480    30.8165   -22.8053 CH2           1 RES     
    2359 CH2         10.7890    31.7044   -21.5477 CH2           1 RES     
    2360 CH2         10.7480    30.8165   -20.2901 CH2           1 RES     
    2361 CH2         10.7890    31.7044   -19.0324 CH2           1 RES     
    2362 CH2         10.7480    30.8165   -17.7748 CH2           1 RES     
    2363 CH2         10.7890    31.7044   -16.5172 CH2           1 RES     
    2364 CH2         10.7480    30.8165   -15.2596 CH2           1 RES     
    2365 CH2         10.7890    31.7044   -14.0019 CH2           1 RES     
    2366 CH2         10.7480    30.8165   -12.7443 CH2           1 RES     
    2367 CH2         10.7890    31.7044   -11.4867 CH2           1 RES     
    2368 CH2         10.7480    30.8165   -10.2291 CH2           1 RES     
    2369 CH2         10.7890    31.7044    -8.9714 CH2           1 RES     
    2370 CH2         10.7480    30.8165    -7.7138 CH2           1 RES     
    2371 CH2         10.7890    31.7044    -6.4562 CH2           1 RES     
    2372 O           10.8246    32.8634   -23.9780 O             1 RES     
    2373 C           10.7772    31.6343   -23.9780 C             1 RES     
    2374 OA          10.7378    30.9279   -25.1101 OA            1 RES     
    2375 H           10.7537    31.5448   -25.8455 H             1 RES     
    2376 CH3         10.4215    15.3015   -24.0058 CH3           1 RES     
    2377 CH2         10.1246    14.5068   -22.8053 CH2           1 RES     
    2378 CH2         10.4356    15.3394   -21.5477 CH2           1 RES     
    2379 CH2         10.1246    14.5068   -20.2901 CH2           1 RES     
    2380 CH2         10.4356    15.3394   -19.0324 CH2           1 RES     
    2381 CH2         10.1246    14.5068   -17.7748 CH2           1 RES     
    2382 CH2         10.4356    15.3394   -16.5172 CH2           1 RES     
    2383 CH2         10.1246    14.5068   -15.2596 CH2           1 RES     
    2384 CH2         10.4356    15.3394   -14.0019 CH2           1 RES     
    2385 CH2         10.1246    14.5068   -12.7443 CH2           1 RES     
    2386 CH2         10.4356    15.3394   -11.4867 CH2           1 RES     
    2387 CH2         10.1246    14.5068   -10.2291 CH2           1 RES     
    2388 CH2         10.4356    15.3394    -8.9714 CH2           1 RES     
    2389 CH2         10.1246    14.5068    -7.7138 CH2           1 RES     
    2390 CH2         10.4356    15.3394    -6.4562 CH2           1 RES     
    2391 O           10.8246    16.4317   -23.9780 O             1 RES     
    2392 C           10.4028    15.2762   -23.9780 C             1 RES     
    2393 OA          10.1489    14.6159   -25.1101 OA            1 RES     
    2394 H           10.3531    15.1983   -25.8455 H             1 RES     
    2395 CH3         22.3804    26.3478   -24.0058 CH3           1 RES     
    2396 CH2         22.7946    25.6074   -22.8053 CH2           1 RES     
    2397 CH2         22.3607    26.3831   -21.5477 CH2           1 RES     
    2398 CH2         22.7946    25.6074   -20.2901 CH2           1 RES     
    2399 CH2         22.3607    26.3831   -19.0324 CH2           1 RES     
    2400 CH2         22.7946    25.6074   -17.7748 CH2           1 RES     
    2401 CH2         22.3607    26.3831   -16.5172 CH2           1 RES     
    2402 CH2         22.7946    25.6074   -15.2596 CH2           1 RES     
    2403 CH2         22.3607    26.3831   -14.0019 CH2           1 RES     
    2404 CH2         22.7946    25.6074   -12.7443 CH2           1 RES     
    2405 CH2         22.3607    26.3831   -11.4867 CH2           1 RES     
    2406 CH2         22.7946    25.6074   -10.2291 CH2           1 RES     
    2407 CH2         22.3607    26.3831    -8.9714 CH2           1 RES     
    2408 CH2         22.7946    25.6074    -7.7138 CH2           1 RES     
    2409 CH2         22.3607    26.3831    -6.4562 CH2           1 RES     
    2410 O           21.7790    27.3861   -23.9780 O             1 RES     
    2411 C           22.3876    26.3172   -23.9780 C             1 RES     
    2412 OA          22.7271    25.6965   -25.1101 OA            1 RES     
    2413 H           22.4150    26.2289   -25.8455 H             1 RES     
    2414 CH3         21.5806    20.7255   -24.0058 CH3           1 RES     
    2415 CH2         21.4278    19.8910   -22.8053 CH2           1 RES     
    2416 CH2         21.5879    20.7653   -21.5477 CH2           1 RES     
    2417 CH2         21.4278    19.8910   -20.2901 CH2           1 RES     
    2418 CH2         21.5879    20.7653   -19.0324 CH2           1 RES     
    2419 CH2         21.4278    19.8910   -17.7748 CH2           1 RES     
    2420 CH2         21.5879    20.7653   -16.5172 CH2           1 RES     
    2421 CH2         21.4278    19.8910   -15.2596 CH2           1 RES     
    2422 CH2         21.5879    20.7653   -14.0019 CH2           1 RES     
    2423 CH2         21.4278    19.8910   -12.7443 CH2           1 RES     
    2424 CH2         21.5879    20.7653   -11.4867 CH2           1 RES     
    2425 CH2         21.4278    19.8910   -10.2291 CH2           1 RES     
    2426 CH2         21.5879    20.7653    -8.9714 CH2           1 RES     
    2427 CH2         21.4278    19.8910    -7.7138 CH2           1 RES     
    2428 CH2         21.5879    20.7653    -6.4562 CH2           1 RES     
    2429 O           21.7790    21.9089   -23.9780 O             1 RES     
    2430 C           21.5667    20.6974   -23.9780 C             1 RES     
    2431 OA          21.4326    20.0027   -25.1101 OA            1 RES     
    2432 H           21.5314    20.6119   -25.8455 H             1 RES     
    2433 OW          13.2960    23.0590     6.8670 OW            1 RES     
    2434 HW1         13.6390    23.7230     7.5310 HW1           1 RES     
    2435 HW2         12.2960    23.0700     6.8690 HW2           1 RES     
    2436 OW          10.3990     5.2460    28.8380 OW            1 RES     
    2437 HW1         11.1060     4.7590    28.3260 HW1           1 RES     
    2438 HW2         10.5050     5.0600    29.8150 HW2           1 RES     
    2439 OW           9.9750    14.5480    26.3010 OW            1 RES     
    2440 HW1          9.9160    14.1200    27.2020 HW1           1 RES     
    2441 HW2          9.8990    15.5410    26.3970 HW2           1 RES     
    2442 OW           2.1420    11.6610    17.5480 OW            1 RES     
    2443 HW1          2.3230    12.6420    17.4930 HW1           1 RES     
    2444 HW2          2.9840    11.1790    17.7930 HW2           1 RES     
    2445 OW           6.2140    28.3520    15.5970 OW            1 RES     
    2446 HW1          6.5260    29.2520    15.9010 HW1           1 RES     
    2447 HW2          5.9410    28.4010    14.6360 HW2           1 RES     
    2448 OW          13.5600    27.0800    26.3760 OW            1 RES     
    2449 HW1         12.9080    27.0390    27.1320 HW1           1 RES     
    2450 HW2         13.2770    26.4450    25.6560 HW2           1 RES     
    2451 OW          38.3030     3.4140    25.1210 OW            1 RES     
    2452 HW1         38.6480     2.9620    24.2990 HW1           1 RES     
    2453 HW2         38.7580     4.2980    25.2320 HW2           1 RES     
    2454 OW          27.8120    38.2840     9.9840 OW            1 RES     
    2455 HW1         28.3240    37.4440     9.8060 HW1           1 RES     
    2456 HW2         27.0240    38.3310     9.3690 HW2           1 RES     
    2457 OW          16.8100     4.9330    26.2100 OW            1 RES     
    2458 HW1         17.5500     4.2650    26.1430 HW1           1 RES     
    2459 HW2         17.1970     5.8490    26.3200 HW2           1 RES     
    2460 OW          -0.1740    35.9580    19.1520 OW            1 RES     
    2461 HW1         -0.4390    35.4460    18.3350 HW1           1 RES     
    2462 HW2         -0.8020    35.7400    19.9000 HW2           1 RES     
    2463 OW          11.9500    19.8660    17.2270 OW            1 RES     
    2464 HW1         12.7530    19.2710    17.2220 HW1           1 RES     
    2465 HW2         11.1400    19.3350    16.9760 HW2           1 RES     
    2466 OW          36.7360     5.9660    25.5610 OW            1 RES     
    2467 HW1         36.4100     6.9020    25.6890 HW1           1 RES     
    2468 HW2         37.4590     5.7710    26.2240 HW2           1 RES     
    2469 OW           7.9400    21.4810    24.8960 OW            1 RES     
    2470 HW1          8.4240    20.6380    25.1270 HW1           1 RES     
    2471 HW2          7.6800    21.4630    23.9300 HW2           1 RES     
    2472 OW          21.0400     2.1010    12.1970 OW            1 RES     
    2473 HW1         20.9070     1.1130    12.2620 HW1           1 RES     
    2474 HW2         21.9330     2.2920    11.7880 HW2           1 RES     
    2475 OW          31.6290    34.8390    18.2770 OW            1 RES     
    2476 HW1         32.5280    35.2290    18.0790 HW1           1 RES     
    2477 HW2         30.9160    35.4430    17.9210 HW2           1 RES     
    2478 OW          31.2320    35.1180    15.1180 OW            1 RES     
    2479 HW1         31.8830    34.3590    15.1060 HW1           1 RES     
    2480 HW2         31.7300    35.9840    15.1580 HW2           1 RES     
    2481 OW          32.7070    28.1890    14.6690 OW            1 RES     
    2482 HW1         33.5940    28.6440    14.6020 HW1           1 RES     
    2483 HW2         32.8450    27.2140    14.8480 HW2           1 RES     
    2484 OW          16.8290    18.3860     6.8690 OW            1 RES     
    2485 HW1         16.2700    19.2050     6.9860 HW1           1 RES     
    2486 HW2         16.2720    17.5740     7.0450 HW2           1 RES     
    2487 OW           9.4290    -1.4490    29.9230 OW            1 RES     
    2488 HW1          9.2290    -0.5130    30.2100 HW1           1 RES     
    2489 HW2         10.4180    -1.5980    29.9340 HW2           1 RES     
    2490 OW          16.3800    31.0120    25.3760 OW            1 RES     
    2491 HW1         15.4900    30.5690    25.4770 HW1           1 RES     
    2492 HW2         16.6600    30.9850    24.4160 HW2           1 RES     
    2493 OW           9.8360    26.3220    10.5190 OW            1 RES     
    2494 HW1         10.7580    26.5090    10.8550 HW1           1 RES     
    2495 HW2          9.3390    27.1830    10.4110 HW2           1 RES     
    2496 OW          17.2020    36.5560    17.6630 OW            1 RES     
    2497 HW1         17.5360    37.2970    17.0820 HW1           1 RES     
    2498 HW2         17.8140    35.7690    17.5870 HW2           1 RES     
    2499 OW          29.9510    37.6570    14.0140 OW            1 RES     
    2500 HW1         29.1600    37.9340    14.5570 HW1           1 RES     
    2501 HW2         29.6920    37.6060    13.0490 HW2           1 RES     
    2502 OW          17.9580    27.4050     9.6120 OW            1 RES     
    2503 HW1         17.9890    26.4820     9.2280 HW1           1 RES     
    2504 HW2         18.4970    28.0230     9.0390 HW2           1 RES     
    2505 OW          28.8920    21.1940    30.4420 OW            1 RES     
    2506 HW1         29.2290    20.9810    29.5260 HW1           1 RES     
    2507 HW2         27.9010    21.3280    30.4110 HW2           1 RES     
    2508 OW          10.8970    28.7370    19.1140 OW            1 RES     
    2509 HW1         10.6810    28.8450    18.1440 HW1           1 RES     
    2510 HW2         11.3170    29.5770    19.4570 HW2           1 RES     
    2511 OW          25.7890     4.0890    28.5230 OW            1 RES     
    2512 HW1         26.2830     4.3890    29.3380 HW1           1 RES     
    2513 HW2         25.8220     4.8090    27.8290 HW2           1 RES     
    2514 OW           1.8200    37.6890    23.1700 OW            1 RES     
    2515 HW1          1.5060    36.7410    23.1690 HW1           1 RES     
    2516 HW2          1.0300    38.3030    23.1720 HW2           1 RES     
    2517 OW          24.0700     8.1160    21.8280 OW            1 RES     
    2518 HW1         24.9490     7.8300    22.2070 HW1           1 RES     
    2519 HW2         23.3360     7.5810    22.2480 HW2           1 RES     
    2520 OW           6.6130    28.9400    22.5040 OW            1 RES     
    2521 HW1          6.9660    28.0450    22.2330 HW1           1 RES     
    2522 HW2          7.3710    29.5210    22.8010 HW2           1 RES     
    2523 OW          11.2410    -0.1170     8.3550 OW            1 RES     
    2524 HW1         10.3000     0.1600     8.5450 HW1           1 RES     
    2525 HW2         11.3280    -1.1070     8.4700 HW2           1 RES     
    2526 OW          21.8450     6.2560     8.8420 OW            1 RES     
    2527 HW1         21.1660     5.5230     8.8360 HW1           1 RES     
    2528 HW2         21.3800     7.1410     8.8980 HW2           1 RES     
    2529 OW          29.4950    17.9510    27.3560 OW            1 RES     
    2530 HW1         30.2760    17.3280    27.3460 HW1           1 RES     
    2531 HW2         29.2870    18.2120    28.2990 HW2           1 RES     
    2532 OW          32.5850    22.6810     7.7670 OW            1 RES     
    2533 HW1         31.6550    22.9440     7.5120 HW1           1 RES     
    2534 HW2         33.0720    23.4800     8.1230 HW2           1 RES     
    2535 OW          14.4130    14.4740    13.8040 OW            1 RES     
    2536 HW1         13.4340    14.6460    13.9040 HW1           1 RES     
    2537 HW2         14.9260    15.1450    14.3400 HW2           1 RES     
    2538 OW          26.3620     3.1570    21.1010 OW            1 RES     
    2539 HW1         25.7810     2.3750    20.8820 HW1           1 RES     
    2540 HW2         27.2770     3.0100    20.7250 HW2           1 RES     
    2541 OW          30.0810     4.8980     8.7160 OW            1 RES     
    2542 HW1         29.5930     4.9080     7.8440 HW1           1 RES     
    2543 HW2         29.4370     5.0760     9.4610 HW2           1 RES     
    2544 OW          12.4620    36.5680    20.0720 OW            1 RES     
    2545 HW1         12.9010    37.2310    20.6780 HW1           1 RES     
    2546 HW2         11.7460    36.0810    20.5730 HW2           1 RES     
    2547 OW           1.7220    25.0670    23.3640 OW            1 RES     
    2548 HW1          2.2510    24.2910    23.7050 HW1           1 RES     
    2549 HW2          0.7800    24.7800    23.1910 HW2           1 RES     
    2550 OW           4.7260    12.6230    19.9180 OW            1 RES     
    2551 HW1          5.4500    12.1280    19.4390 HW1           1 RES     
    2552 HW2          4.2810    12.0120    20.5740 HW2           1 RES     
    2553 OW           1.4320    13.1770    29.2310 OW            1 RES     
    2554 HW1          1.1430    12.6030    29.9960 HW1           1 RES     
    2555 HW2          2.3380    12.8870    28.9200 HW2           1 RES     
    2556 OW          23.5670     0.9200     7.5290 OW            1 RES     
    2557 HW1         22.9700     1.3710     6.8670 HW1           1 RES     
    2558 HW2         23.6290    -0.0550     7.3140 HW2           1 RES     
    2559 OW          17.6480    35.1000    24.4580 OW            1 RES     
    2560 HW1         17.3190    34.2390    24.8430 HW1           1 RES     
    2561 HW2         16.9420    35.8020    24.5570 HW2           1 RES     
    2562 OW           0.8590     1.6610    26.7750 OW            1 RES     
    2563 HW1          1.4150     2.2670    27.3440 HW1           1 RES     
    2564 HW2          0.1220     2.1870    26.3490 HW2           1 RES     
    2565 OW          28.7620     5.7520    27.7540 OW            1 RES     
    2566 HW1         27.8290     5.6680    28.1020 HW1           1 RES     
    2567 HW2         29.2900     4.9430    28.0160 HW2           1 RES     
    2568 OW          35.5870    25.4180    29.6660 OW            1 RES     
    2569 HW1         35.1040    25.6280    28.8170 HW1           1 RES     
    2570 HW2         34.9670    25.5420    30.4420 HW2           1 RES     
    2571 OW          10.0510    33.6050    30.4410 OW            1 RES     
    2572 HW1          9.3170    34.2450    30.2170 HW1           1 RES     
    2573 HW2          9.8650    32.7200    30.0140 HW2           1 RES     
    2574 OW          27.9770    -1.0690    14.2150 OW            1 RES     
    2575 HW1         27.7120    -1.3170    15.1470 HW1           1 RES     
    2576 HW2         28.2630    -1.8890    13.7200 HW2           1 RES     
    2577 OW          13.7700    27.0380    29.4510 OW            1 RES     
    2578 HW1         14.4610    27.0750    30.1720 HW1           1 RES     
    2579 HW2         13.7410    27.9150    28.9710 HW2           1 RES     
    2580 OW          15.7550    17.6610    19.5690 OW            1 RES     
    2581 HW1         15.1380    18.4130    19.3420 HW1           1 RES     
    2582 HW2         16.2810    17.4030    18.7580 HW2           1 RES     
    2583 OW          24.3410    38.3380    18.4270 OW            1 RES     
    2584 HW1         23.4060    37.9900    18.3640 HW1           1 RES     
    2585 HW2         24.9720    37.5750    18.5680 HW2           1 RES     
    2586 OW           0.0130    21.7090     6.8750 OW            1 RES     
    2587 HW1         -0.7950    21.1210     6.8740 HW1           1 RES     
    2588 HW2          0.8380    21.1430     6.8670 HW2           1 RES     
    2589 OW          29.1210    27.9880     8.8520 OW            1 RES     
    2590 HW1         29.3170    27.1750     8.3060 HW1           1 RES     
    2591 HW2         29.9630    28.5100     8.9890 HW2           1 RES     
    2592 OW          22.5220     6.8510    29.8840 OW            1 RES     
    2593 HW1         22.6730     5.8880    30.1050 HW1           1 RES     
    2594 HW2         23.3740     7.3600    30.0100 HW2           1 RES     
    2595 OW          11.3210    24.8770    24.0610 OW            1 RES     
    2596 HW1         12.3210    24.9010    24.0580 HW1           1 RES     
    2597 HW2         10.9650    25.8120    24.0420 HW2           1 RES     
    2598 OW          18.8110     8.2390    18.4760 OW            1 RES     
    2599 HW1         19.3420     8.2370    19.3220 HW1           1 RES     
    2600 HW2         19.1320     7.5030    17.8790 HW2           1 RES     
    2601 OW          37.7730    36.1230    10.4250 OW            1 RES     
    2602 HW1         37.1560    35.3440    10.3170 HW1           1 RES     
    2603 HW2         38.7100    35.8370    10.2240 HW2           1 RES     
    2604 OW           4.4280    20.0850    27.3990 OW            1 RES     
    2605 HW1          4.0290    19.2570    27.7910 HW1           1 RES     
    2606 HW2          4.9640    19.8460    26.5890 HW2           1 RES     
    2607 OW          10.3320     8.8080    12.5730 OW            1 RES     
    2608 HW1         10.2010     9.5570    13.2220 HW1           1 RES     
    2609 HW2         10.1990     7.9340    13.0410 HW2           1 RES     
    2610 OW          19.9280    10.4980    21.5700 OW            1 RES     
    2611 HW1         19.8880     9.8160    20.8400 HW1           1 RES     
    2612 HW2         20.7680    10.3740    22.0980 HW2           1 RES     
    2613 OW          37.4050     4.8530    20.9120 OW            1 RES     
    2614 HW1         38.0220     5.6160    21.1040 HW1           1 RES     
    2615 HW2         37.9050     4.1320    20.4330 HW2           1 RES     
    2616 OW           6.4150    32.7300    14.5970 OW            1 RES     
    2617 HW1          5.6720    32.9230    15.2370 HW1           1 RES     
    2618 HW2          6.1780    33.0880    13.6940 HW2           1 RES     
    2619 OW          10.0280    32.2530    16.8210 OW            1 RES     
    2620 HW1         10.4470    31.8510    16.0080 HW1           1 RES     
    2621 HW2          9.2910    31.6600    17.1460 HW2           1 RES     
    2622 OW          32.7080    14.7930    29.6890 OW            1 RES     
    2623 HW1         32.8460    15.4940    30.3880 HW1           1 RES     
    2624 HW2         32.9560    13.8980    30.0600 HW2           1 RES     
    2625 OW           5.4200    24.7650    14.7200 OW            1 RES     
    2626 HW1          4.6110    24.2050    14.8950 HW1           1 RES     
    2627 HW2          6.2380    24.2760    15.0260 HW2           1 RES     
    2628 OW           5.7820    25.0680    20.4520 OW            1 RES     
    2629 HW1          6.4610    25.1660    19.7250 HW1           1 RES     
    2630 HW2          5.9990    24.2630    21.0040 HW2           1 RES     
    2631 OW          28.5880     0.6690    17.9260 OW            1 RES     
    2632 HW1         28.7700     1.5990    18.2450 HW1           1 RES     
    2633 HW2         29.3950     0.3150    17.4530 HW2           1 RES     
    2634 OW          23.8830    38.3410    14.5970 OW            1 RES     
    2635 HW1         23.6720    37.5440    14.0310 HW1           1 RES     
    2636 HW2         23.4400    38.2440    15.4880 HW2           1 RES     
    2637 OW          29.3200     7.2820     8.7390 OW            1 RES     
    2638 HW1         29.7180     7.3280     9.6550 HW1           1 RES     
    2639 HW2         28.7330     8.0780     8.5900 HW2           1 RES     
    2640 OW           7.1940     2.3630    30.1550 OW            1 RES     
    2641 HW1          8.0030     2.9000    30.3910 HW1           1 RES     
    2642 HW2          6.8020     2.7070    29.3020 HW2           1 RES     
    2643 OW          12.5260    12.2000     8.0450 OW            1 RES     
    2644 HW1         12.9040    13.1240     8.0910 HW1           1 RES     
    2645 HW2         11.5850    12.2390     7.7100 HW2           1 RES     
    2646 OW          24.4320    12.7540    17.3630 OW            1 RES     
    2647 HW1         24.8100    13.1130    16.5100 HW1           1 RES     
    2648 HW2         25.1220    12.8110    18.0850 HW2           1 RES     
    2649 OW          21.0620    10.3760    16.7520 OW            1 RES     
    2650 HW1         21.4340    10.8000    17.5770 HW1           1 RES     
    2651 HW2         20.2130    10.8370    16.4940 HW2           1 RES     
    2652 OW          14.3300     9.7050    25.7920 OW            1 RES     
    2653 HW1         13.6750     9.0360    25.4430 HW1           1 RES     
    2654 HW2         13.8390    10.4440    26.2540 HW2           1 RES     
    2655 OW          23.5370     0.8880    22.6480 OW            1 RES     
    2656 HW1         23.9290     0.6850    21.7510 HW1           1 RES     
    2657 HW2         22.9280     0.1430    22.9230 HW2           1 RES     
    2658 OW          29.8810    10.1930    30.0940 OW            1 RES     
    2659 HW1         29.4230    11.0010    29.7240 HW1           1 RES     
    2660 HW2         30.7830    10.4490    30.4420 HW2           1 RES     
    2661 OW          16.5080     0.6340    11.0030 OW            1 RES     
    2662 HW1         17.4180     0.3030    10.7560 HW1           1 RES     
    2663 HW2         16.5200     1.6320    11.0640 HW2           1 RES     
    2664 OW          -0.4370    37.2110    27.0390 OW            1 RES     
    2665 HW1          0.5250    37.0560    27.2610 HW1           1 RES     
    2666 HW2         -1.0050    36.5570    27.5380 HW2           1 RES     
    2667 OW          12.6180    18.6010     7.1510 OW            1 RES     
    2668 HW1         12.2440    19.4840     6.8710 HW1           1 RES     
    2669 HW2         13.6040    18.5870     6.9800 HW2           1 RES     
    2670 OW           2.5630    23.9520    27.3910 OW            1 RES     
    2671 HW1          1.6760    23.4920    27.3800 HW1           1 RES     
    2672 HW2          3.2730    23.3150    27.0900 HW2           1 RES     
    2673 OW          20.9470    17.4840    10.3610 OW            1 RES     
    2674 HW1         21.9210    17.2870    10.4630 HW1           1 RES     
    2675 HW2         20.7330    18.3510    10.8120 HW2           1 RES     
    2676 OW           8.1560    34.2610    15.4070 OW            1 RES     
    2677 HW1          9.0080    33.9260    15.8080 HW1           1 RES     
    2678 HW2          7.4830    34.4140    16.1310 HW2           1 RES     
    2679 OW          36.3840    26.9660    19.7030 OW            1 RES     
    2680 HW1         36.1660    26.0390    20.0070 HW1           1 RES     
    2681 HW2         35.5910    27.5590    19.8440 HW2           1 RES     
    2682 OW          16.3470    31.4350    27.6500 OW            1 RES     
    2683 HW1         16.7530    30.5360    27.4910 HW1           1 RES     
    2684 HW2         15.3570    31.3830    27.5160 HW2           1 RES     
    2685 OW           3.5490    27.0080    27.6550 OW            1 RES     
    2686 HW1          3.4870    27.6800    26.9170 HW1           1 RES     
    2687 HW2          3.3620    26.0950    27.2910 HW2           1 RES     
    2688 OW          17.9230    30.8770    13.4920 OW            1 RES     
    2689 HW1         17.8460    29.8810    13.5270 HW1           1 RES     
    2690 HW2         17.0970    31.2620    13.0790 HW2           1 RES     
    2691 OW           1.1960     7.7750    15.6890 OW            1 RES     
    2692 HW1          0.2110     7.6170    15.6430 HW1           1 RES     
    2693 HW2          1.6710     6.9000    15.7870 HW2           1 RES     
    2694 OW          20.0460    16.5700    20.0850 OW            1 RES     
    2695 HW1         19.3340    17.1770    20.4380 HW1           1 RES     
    2696 HW2         20.8490    17.1100    19.8300 HW2           1 RES     
    2697 OW           9.8250    34.8160    23.3660 OW            1 RES     
    2698 HW1         10.5410    34.6940    22.6790 HW1           1 RES     
    2699 HW2         10.2440    34.9150    24.2700 HW2           1 RES     
    2700 OW          24.8240    24.0920    12.2240 OW            1 RES     
    2701 HW1         25.2240    24.7800    11.6190 HW1           1 RES     
    2702 HW2         25.1830    23.1890    11.9860 HW2           1 RES     
    2703 OW          23.8200    24.5310    28.7970 OW            1 RES     
    2704 HW1         23.3470    23.7220    29.1440 HW1           1 RES     
    2705 HW2         23.1920    25.3090    28.7940 HW2           1 RES     
    2706 OW           7.7000    38.3410    20.6870 OW            1 RES     
    2707 HW1          6.7170    38.3020    20.8630 HW1           1 RES     
    2708 HW2          8.1980    38.1390    21.5310 HW2           1 RES     
    2709 OW           8.1970    -0.7800    10.7110 OW            1 RES     
    2710 HW1          8.2540    -1.7380    10.9890 HW1           1 RES     
    2711 HW2          9.1180    -0.4250    10.5480 HW2           1 RES     
    2712 OW          27.1310    15.4390     8.1910 OW            1 RES     
    2713 HW1         27.0890    16.4380     8.2070 HW1           1 RES     
    2714 HW2         27.3730    15.1310     7.2710 HW2           1 RES     
    2715 OW          25.2400     6.6050    24.6420 OW            1 RES     
    2716 HW1         26.0460     6.0160    24.6050 HW1           1 RES     
    2717 HW2         24.5100     6.1420    25.1440 HW2           1 RES     
    2718 OW          31.4600    36.4390    23.6660 OW            1 RES     
    2719 HW1         32.3380    36.4230    24.1440 HW1           1 RES     
    2720 HW2         31.5370    37.0030    22.8440 HW2           1 RES     
    2721 OW           3.3620    32.2990    18.7950 OW            1 RES     
    2722 HW1          2.8080    32.2980    19.6270 HW1           1 RES     
    2723 HW2          2.9080    31.7530    18.0910 HW2           1 RES     
    2724 OW          -0.5390     5.4120    17.6400 OW            1 RES     
    2725 HW1         -0.5100     4.4530    17.9200 HW1           1 RES     
    2726 HW2          0.3860     5.7910    17.6490 HW2           1 RES     
    2727 OW          24.0550    12.7520    20.8190 OW            1 RES     
    2728 HW1         24.8490    12.9920    20.2620 HW1           1 RES     
    2729 HW2         23.7860    13.5400    21.3730 HW2           1 RES     
    2730 OW          30.3130    33.7970    21.4090 OW            1 RES     
    2731 HW1         30.7040    34.7140    21.4730 HW1           1 RES     
    2732 HW2         30.9520    33.1930    20.9330 HW2           1 RES     
    2733 OW           9.1630    29.3010    13.0210 OW            1 RES     
    2734 HW1          9.9520    28.9720    13.5390 HW1           1 RES     
    2735 HW2          8.6060    28.5230    12.7290 HW2           1 RES     
    2736 OW          34.2740    15.0680    25.9300 OW            1 RES     
    2737 HW1         34.9800    14.3700    25.8140 HW1           1 RES     
    2738 HW2         34.4290    15.8110    25.2780 HW2           1 RES     
    2739 OW          27.0010    10.2350    30.3830 OW            1 RES     
    2740 HW1         27.2240    11.0000    29.7790 HW1           1 RES     
    2741 HW2         27.7860     9.6180    30.4420 HW2           1 RES     
    2742 OW          16.9380    24.1240    16.6220 OW            1 RES     
    2743 HW1         16.2570    24.8530    16.6710 HW1           1 RES     
    2744 HW2         16.8770    23.5550    17.4430 HW2           1 RES     
    2745 OW          22.9630    22.4310    12.0870 OW            1 RES     
    2746 HW1         22.9500    21.5010    11.7210 HW1           1 RES     
    2747 HW2         23.0810    23.0830    11.3380 HW2           1 RES     
    2748 OW          19.0630    36.7820    24.5570 OW            1 RES     
    2749 HW1         19.7370    36.1520    24.9390 HW1           1 RES     
    2750 HW2         19.3830    37.7230    24.6710 HW2           1 RES     
    2751 OW           4.8180    -2.0480    27.6200 OW            1 RES     
    2752 HW1          4.3420    -1.1690    27.5990 HW1           1 RES     
    2753 HW2          5.8050    -1.8920    27.6630 HW2           1 RES     
    2754 OW           9.7550     9.1680    29.4850 OW            1 RES     
    2755 HW1          9.3320    10.0340    29.7510 HW1           1 RES     
    2756 HW2          9.1100     8.4200    29.6430 HW2           1 RES     
    2757 OW           8.8110    12.5180    12.4410 OW            1 RES     
    2758 HW1          8.1250    11.9480    12.8930 HW1           1 RES     
    2759 HW2          8.7910    13.4380    12.8320 HW2           1 RES     
    2760 OW          28.5640    10.1500     9.7120 OW            1 RES     
    2761 HW1         27.8140    10.8090     9.7480 HW1           1 RES     
    2762 HW2         29.3260    10.5390     9.1920 HW2           1 RES     
    2763 OW          11.6590    26.6840    18.8990 OW            1 RES     
    2764 HW1         12.4950    26.7260    19.4440 HW1           1 RES     
    2765 HW2         10.9890    26.1010    19.3580 HW2           1 RES     
    2766 OW          16.1860    33.3740    13.8800 OW            1 RES     
    2767 HW1         16.2610    33.2880    12.8870 HW1           1 RES     
    2768 HW2         15.6340    34.1770    14.1050 HW2           1 RES     
    2769 OW          23.8270     1.6510    18.1680 OW            1 RES     
    2770 HW1         24.3440     1.4350    18.9950 HW1           1 RES     
    2771 HW2         23.6040     0.8060    17.6830 HW2           1 RES     
    2772 OW          30.5130    18.7790    20.8240 OW            1 RES     
    2773 HW1         31.3740    18.5040    21.2520 HW1           1 RES     
    2774 HW2         29.8900    17.9970    20.7970 HW2           1 RES     
    2775 OW          26.6030    29.6410    28.5150 OW            1 RES     
    2776 HW1         27.0620    29.0030    29.1330 HW1           1 RES     
    2777 HW2         26.8480    29.4250    27.5700 HW2           1 RES     
    2778 OW          15.3590    13.0340    22.5270 OW            1 RES     
    2779 HW1         15.5600    12.0550    22.5250 HW1           1 RES     
    2780 HW2         14.3710    13.1730    22.4550 HW2           1 RES     
    2781 OW           7.5470    10.8230    10.9280 OW            1 RES     
    2782 HW1          6.5480    10.8260    10.9560 HW1           1 RES     
    2783 HW2          7.8790     9.8800    10.9520 HW2           1 RES     
    2784 OW          22.7880    12.1820    28.1190 OW            1 RES     
    2785 HW1         21.8810    11.7640    28.0850 HW1           1 RES     
    2786 HW2         22.6960    13.1760    28.1740 HW2           1 RES     
    2787 OW           0.7370     2.9000    30.4360 OW            1 RES     
    2788 HW1          0.1510     3.7090    30.4300 HW1           1 RES     
    2789 HW2          1.6970     3.1830    30.4430 HW2           1 RES     
    2790 OW          34.2880    32.0580     9.0510 OW            1 RES     
    2791 HW1         33.3110    31.8640     8.9650 HW1           1 RES     
    2792 HW2         34.6550    31.5770     9.8470 HW2           1 RES     
    2793 OW          37.2190    13.0530     6.9320 OW            1 RES     
    2794 HW1         37.7240    13.9150     6.9030 HW1           1 RES     
    2795 HW2         36.3980    13.1660     7.4920 HW2           1 RES     
    2796 OW           5.8900    37.6030    10.1350 OW            1 RES     
    2797 HW1          6.0420    36.9080     9.4330 HW1           1 RES     
    2798 HW2          5.2440    38.2860     9.7940 HW2           1 RES     
    2799 OW          32.0400     5.5340    30.1040 OW            1 RES     
    2800 HW1         32.7280     4.8110    30.0580 HW1           1 RES     
    2801 HW2         31.1990     5.2250    29.6600 HW2           1 RES     
    2802 OW          28.3270     5.3280    12.1680 OW            1 RES     
    2803 HW1         28.8830     4.6460    11.6940 HW1           1 RES     
    2804 HW2         28.9250     5.9930    12.6170 HW2           1 RES     
    2805 OW          33.2340    30.7430    22.7720 OW            1 RES     
    2806 HW1         34.2040    30.5720    22.9450 HW1           1 RES     
    2807 HW2         32.8780    30.0460    22.1490 HW2           1 RES     
    2808 OW          -0.5270    23.8610    12.9070 OW            1 RES     
    2809 HW1          0.0470    24.1240    13.6820 HW1           1 RES     
    2810 HW2         -0.6640    24.6520    12.3100 HW2           1 RES     
    2811 OW          34.7680    21.2320    28.6650 OW            1 RES     
    2812 HW1         34.6340    20.4200    29.2340 HW1           1 RES     
    2813 HW2         35.7450    21.4350    28.5990 HW2           1 RES     
    2814 OW          25.4260    23.9440    21.1050 OW            1 RES     
    2815 HW1         25.8630    24.8410    21.1650 HW1           1 RES     
    2816 HW2         24.6780    23.9810    20.4420 HW2           1 RES     
    2817 OW          15.5060    30.9130    18.2930 OW            1 RES     
    2818 HW1         14.9450    31.7390    18.2770 HW1           1 RES     
    2819 HW2         16.4480    31.1530    18.5310 HW2           1 RES     
    2820 OW          30.9990     2.7230    15.3480 OW            1 RES     
    2821 HW1         31.5210     1.8710    15.3150 HW1           1 RES     
    2822 HW2         30.0260     2.5140    15.4440 HW2           1 RES     
    2823 OW          34.8600    -1.4770    14.4540 OW            1 RES     
    2824 HW1         35.6570    -2.0480    14.2600 HW1           1 RES     
    2825 HW2         34.1200    -2.0480    14.8100 HW2           1 RES     
    2826 OW          38.8780     4.4020    13.1320 OW            1 RES     
    2827 HW1         38.7010     3.4350    13.3140 HW1           1 RES     
    2828 HW2         38.1680     4.9580    13.5650 HW2           1 RES     
    2829 OW          35.2660    28.2340    23.9730 OW            1 RES     
    2830 HW1         35.1470    27.3160    23.5960 HW1           1 RES     
    2831 HW2         35.5510    28.8590    23.2470 HW2           1 RES     
    2832 OW          20.0360     4.6930    30.3860 OW            1 RES     
    2833 HW1         19.2970     5.3440    30.2170 HW1           1 RES     
    2834 HW2         19.6590     3.7680    30.4430 HW2           1 RES     
    2835 OW          22.0060    31.6460    11.0540 OW            1 RES     
    2836 HW1         21.6550    32.0890    10.2300 HW1           1 RES     
    2837 HW2         21.9990    32.2970    11.8130 HW2           1 RES     
    2838 OW          19.0790    24.3660    12.1000 OW            1 RES     
    2839 HW1         18.6390    25.0030    12.7320 HW1           1 RES     
    2840 HW2         19.2410    24.8230    11.2250 HW2           1 RES     
    2841 OW          29.5110    26.6780    15.6260 OW            1 RES     
    2842 HW1         29.3240    27.6600    15.6350 HW1           1 RES     
    2843 HW2         28.6550    26.1760    15.5030 HW2           1 RES     
    2844 OW          31.2200     3.0700    26.1930 OW            1 RES     
    2845 HW1         31.6220     2.1550    26.2120 HW1           1 RES     
    2846 HW2         31.4860     3.5690    27.0180 HW2           1 RES     
    2847 OW          26.9980    26.6780    26.5600 OW            1 RES     
    2848 HW1         26.7130    25.8940    26.0090 HW1           1 RES     
    2849 HW2         27.7360    26.4030    27.1760 HW2           1 RES     
    2850 OW          21.8590    15.5460    21.8740 OW            1 RES     
    2851 HW1         20.9690    15.9840    21.9930 HW1           1 RES     
    2852 HW2         21.7910    14.8370    21.1730 HW2           1 RES     
    2853 OW          17.3380     7.3700    27.9280 OW            1 RES     
    2854 HW1         16.5780     7.0180    28.4740 HW1           1 RES     
    2855 HW2         17.0880     8.2570    27.5400 HW2           1 RES     
    2856 OW          32.7730    -0.7260    16.1260 OW            1 RES     
    2857 HW1         31.9450    -0.1690    16.0690 HW1           1 RES     
    2858 HW2         32.5220    -1.6820    16.2790 HW2           1 RES     
    2859 OW          19.0310     9.0100    12.8180 OW            1 RES     
    2860 HW1         19.2650     8.0400    12.7620 HW1           1 RES     
    2861 HW2         18.0880     9.1440    12.5130 HW2           1 RES     
    2862 OW          10.3100    15.8840     7.9950 OW            1 RES     
    2863 HW1          9.3230    15.8180     7.8560 HW1           1 RES     
    2864 HW2         10.4960    16.1750     8.9340 HW2           1 RES     
    2865 OW          38.4270    32.5060    24.5360 OW            1 RES     
    2866 HW1         37.7680    31.8400    24.8830 HW1           1 RES     
    2867 HW2         38.6830    33.1360    25.2700 HW2           1 RES     
    2868 OW          11.9290     5.2450     9.1220 OW            1 RES     
    2869 HW1         11.6130     4.6620     8.3740 HW1           1 RES     
    2870 HW2         12.6710     4.7870     9.6110 HW2           1 RES     
    2871 OW          31.6190    29.6890    24.0170 OW            1 RES     
    2872 HW1         32.0390    28.8160    23.7690 HW1           1 RES     
    2873 HW2         31.9600    29.9810    24.9110 HW2           1 RES     
    2874 OW           6.9150    28.0750    10.6500 OW            1 RES     
    2875 HW1          6.6410    29.0280    10.7770 HW1           1 RES     
    2876 HW2          6.1020    27.4930    10.6380 HW2           1 RES     
    2877 OW          24.4260    10.1680    15.6810 OW            1 RES     
    2878 HW1         24.0510    10.9950    16.0970 HW1           1 RES     
    2879 HW2         23.7080     9.4760    15.6080 HW2           1 RES     
    2880 OW          37.0460    36.6490    19.4940 OW            1 RES     
    2881 HW1         37.4770    35.9790    20.0970 HW1           1 RES     
    2882 HW2         36.6010    36.1750    18.7330 HW2           1 RES     
    2883 OW          26.1290    37.9620    23.7660 OW            1 RES     
    2884 HW1         25.8960    37.3570    24.5270 HW1           1 RES     
    2885 HW2         27.0570    38.3140    23.8920 HW2           1 RES     
    2886 OW           6.6900    24.2440    17.1780 OW            1 RES     
    2887 HW1          5.6910    24.2670    17.1640 HW1           1 RES     
    2888 HW2          7.0020    23.2940    17.1920 HW2           1 RES     
    2889 OW          -0.0280    36.6020    24.7410 OW            1 RES     
    2890 HW1         -0.6490    37.3770    24.8510 HW1           1 RES     
    2891 HW2         -0.3570    35.8300    25.2840 HW2           1 RES     
    2892 OW           2.9440     0.0060    23.0410 OW            1 RES     
    2893 HW1          3.0730    -0.8560    22.5510 HW1           1 RES     
    2894 HW2          2.1970    -0.0930    23.6990 HW2           1 RES     
    2895 OW          22.2810    21.4370    29.2000 OW            1 RES     
    2896 HW1         22.0440    20.7730    29.9080 HW1           1 RES     
    2897 HW2         23.2730    21.4520    29.0750 HW2           1 RES     
    2898 OW          39.0500    -1.0870    17.0870 OW            1 RES     
    2899 HW1         38.1040    -1.4090    17.0770 HW1           1 RES     
    2900 HW2         39.1880    -0.4800    17.8700 HW2           1 RES     
    2901 OW          16.1310     6.2640    22.8800 OW            1 RES     
    2902 HW1         15.7610     6.3520    23.8040 HW1           1 RES     
    2903 HW2         15.6460     5.5370    22.3930 HW2           1 RES     
    2904 OW          -0.4650    10.2520    10.7700 OW            1 RES     
    2905 HW1         -1.0040    11.0910    10.8310 HW1           1 RES     
    2906 HW2         -0.9470     9.5840    10.2030 HW2           1 RES     
    2907 OW          34.2250    17.6350    20.2950 OW            1 RES     
    2908 HW1         33.2870    17.9790    20.3000 HW1           1 RES     
    2909 HW2         34.2140    16.6350    20.2780 HW2           1 RES     
    2910 OW          36.6580    17.0010    26.6630 OW            1 RES     
    2911 HW1         35.6980    17.2790    26.6400 HW1           1 RES     
    2912 HW2         36.7210    16.0100    26.5490 HW2           1 RES     
    2913 OW           5.7310     4.4180    15.9860 OW            1 RES     
    2914 HW1          6.5760     4.3610    16.5160 HW1           1 RES     
    2915 HW2          5.0230     3.8640    16.4250 HW2           1 RES     
    2916 OW           6.4440    10.4230    26.2470 OW            1 RES     
    2917 HW1          5.8450    11.0470    25.7450 HW1           1 RES     
    2918 HW2          7.1500    10.9480    26.7220 HW2           1 RES     
    2919 OW          38.2980    11.3520     9.7100 OW            1 RES     
    2920 HW1         37.4530    11.8690     9.5770 HW1           1 RES     
    2921 HW2         39.0480    11.9820     9.9130 HW2           1 RES     
    2922 OW           8.9410    23.2730     9.7590 OW            1 RES     
    2923 HW1          9.1860    22.8140    10.6120 HW1           1 RES     
    2924 HW2          9.6750    23.1470     9.0900 HW2           1 RES     
    2925 OW          19.8360    28.2560    21.9600 OW            1 RES     
    2926 HW1         19.7160    29.2020    22.2590 HW1           1 RES     
    2927 HW2         20.7970    27.9950    22.0570 HW2           1 RES     
    2928 OW           6.8130     8.4360    28.4540 OW            1 RES     
    2929 HW1          6.5910     9.3680    28.1720 HW1           1 RES     
    2930 HW2          6.9190     8.4040    29.4480 HW2           1 RES     
    2931 OW          24.1600    33.8850    19.3530 OW            1 RES     
    2932 HW1         25.0730    34.2230    19.1240 HW1           1 RES     
    2933 HW2         24.0930    32.9160    19.1140 HW2           1 RES     
    2934 OW          27.5110     5.4830     8.2570 OW            1 RES     
    2935 HW1         27.2590     5.2170     9.1870 HW1           1 RES     
    2936 HW2         27.3010     6.4510     8.1190 HW2           1 RES     
    2937 OW          19.7320    13.9220    13.5860 OW            1 RES     
    2938 HW1         19.4920    13.0260    13.9580 HW1           1 RES     
    2939 HW2         19.3580    14.6380    14.1760 HW2           1 RES     
    2940 OW          34.4480    13.4620    23.3900 OW            1 RES     
    2941 HW1         35.1130    13.0820    24.0330 HW1           1 RES     
    2942 HW2         33.8160    14.0620    23.8800 HW2           1 RES     
    2943 OW          33.6310    30.1360     7.5990 OW            1 RES     
    2944 HW1         33.1900    29.6150     6.8690 HW1           1 RES     
    2945 HW2         34.1770    30.8730     7.2000 HW2           1 RES     
    2946 OW          25.0300    17.2260    24.0830 OW            1 RES     
    2947 HW1         24.3450    16.6620    23.6220 HW1           1 RES     
    2948 HW2         25.7770    16.6450    24.4060 HW2           1 RES     
    2949 OW          -0.3670    30.1920     8.4160 OW            1 RES     
    2950 HW1          0.2400    30.3330     9.1970 HW1           1 RES     
    2951 HW2          0.1680    29.8920     7.6270 HW2           1 RES     
    2952 OW           5.5470     6.9860    20.2670 OW            1 RES     
    2953 HW1          5.6540     7.0750    19.2780 HW1           1 RES     
    2954 HW2          6.1800     6.2910    20.6110 HW2           1 RES     
    2955 OW          27.2320    -1.0410     7.3860 OW            1 RES     
    2956 HW1         27.7160    -1.9130     7.4470 HW1           1 RES     
    2957 HW2         26.2520    -1.2100     7.2730 HW2           1 RES     
    2958 OW          17.2750    20.7510     8.1860 OW            1 RES     
    2959 HW1         17.9560    20.0200     8.1410 HW1           1 RES     
    2960 HW2         17.2670    21.2540     7.3220 HW2           1 RES     
    2961 OW           7.4760    10.8460    17.8270 OW            1 RES     
    2962 HW1          8.0950    11.3710    18.4100 HW1           1 RES     
    2963 HW2          7.7980     9.9010    17.7620 HW2           1 RES     
    2964 OW          -0.0400     5.6070    13.6500 OW            1 RES     
    2965 HW1         -0.1550     4.7180    13.2080 HW1           1 RES     
    2966 HW2          0.8730     5.9640    13.4500 HW2           1 RES     
    2967 OW           8.2430    14.3560    10.7070 OW            1 RES     
    2968 HW1          7.6570    13.6600    10.2930 HW1           1 RES     
    2969 HW2          7.6760    15.0800    11.1000 HW2           1 RES     
    2970 OW           8.3490    34.7900     7.1210 OW            1 RES     
    2971 HW1          7.6750    34.9500     7.8410 HW1           1 RES     
    2972 HW2          8.9630    34.0500     7.3960 HW2           1 RES     
    2973 OW           6.3410    26.6860    17.2640 OW            1 RES     
    2974 HW1          5.9270    26.3340    16.4250 HW1           1 RES     
    2975 HW2          7.2830    26.3570    17.3350 HW2           1 RES     
    2976 OW          21.6390    31.6000    25.1140 OW            1 RES     
    2977 HW1         21.4200    32.5050    25.4770 HW1           1 RES     
    2978 HW2         22.6240    31.5340    24.9530 HW2           1 RES     
    2979 OW          29.3870    31.3760    27.4180 OW            1 RES     
    2980 HW1         29.6540    31.4310    26.4560 HW1           1 RES     
    2981 HW2         28.4440    31.0490    27.4830 HW2           1 RES     
    2982 OW          30.6640    -0.0150    10.8820 OW            1 RES     
    2983 HW1         29.8770     0.5880    11.0060 HW1           1 RES     
    2984 HW2         31.0870     0.1670     9.9940 HW2           1 RES     
    2985 OW          22.2340     4.2390    28.1310 OW            1 RES     
    2986 HW1         22.1220     3.2470    28.1900 HW1           1 RES     
    2987 HW2         21.3550     4.6620    27.9110 HW2           1 RES     
    2988 OW          33.6330    26.6730    21.8810 OW            1 RES     
    2989 HW1         33.5380    27.6560    22.0370 HW1           1 RES     
    2990 HW2         34.5100    26.4890    21.4360 HW2           1 RES     
    2991 OW          35.0790     3.7420    30.2440 OW            1 RES     
    2992 HW1         34.2310     3.2160    30.3030 HW1           1 RES     
    2993 HW2         34.8910     4.7040    30.4430 HW2           1 RES     
    2994 OW           9.3510    -1.4750    16.8900 OW            1 RES     
    2995 HW1          8.5780    -2.0480    17.1590 HW1           1 RES     
    2996 HW2         10.2050    -1.9100    17.1770 HW2           1 RES     
    2997 OW          20.2050     5.1530    15.7560 OW            1 RES     
    2998 HW1         19.6950     5.7770    15.1660 HW1           1 RES     
    2999 HW2         20.8610     5.6720    16.3040 HW2           1 RES     
    3000 OW          23.8060     3.1770    30.0540 OW            1 RES     
    3001 HW1         22.8610     2.9830    30.3150 HW1           1 RES     
    3002 HW2         23.8600     4.0910    29.6520 HW2           1 RES     
    3003 OW           5.0810    -0.4590    13.1480 OW            1 RES     
    3004 HW1          5.0210    -1.4490    13.2670 HW1           1 RES     
    3005 HW2          4.1610    -0.0670    13.1400 HW2           1 RES     
    3006 OW           7.5960     7.3390    17.0710 OW            1 RES     
    3007 HW1          6.8700     7.9390    17.4050 HW1           1 RES     
    3008 HW2          7.6350     6.5140    17.6360 HW2           1 RES     
    3009 OW          24.1280    34.1920    27.6430 OW            1 RES     
    3010 HW1         23.3300    34.3050    27.0510 HW1           1 RES     
    3011 HW2         24.0880    34.8590    28.3880 HW2           1 RES     
    3012 OW           6.0370    30.1680    25.4960 OW            1 RES     
    3013 HW1          6.1390    29.6200    24.6670 HW1           1 RES     
    3014 HW2          6.8530    30.7320    25.6260 HW2           1 RES     
    3015 OW           5.5840     9.2170    19.7720 OW            1 RES     
    3016 HW1          6.5720     9.3160    19.6560 HW1           1 RES     
    3017 HW2          5.2060    10.0610    20.1540 HW2           1 RES     
    3018 OW          26.0010    -1.0990    28.4670 OW            1 RES     
    3019 HW1         26.7920    -1.0330    27.8600 HW1           1 RES     
    3020 HW2         25.8900    -2.0460    28.7680 HW2           1 RES     
    3021 OW          22.6540     0.4250    19.9760 OW            1 RES     
    3022 HW1         22.9050    -0.5150    19.7490 HW1           1 RES     
    3023 HW2         21.6580     0.5140    19.9760 HW2           1 RES     
    3024 OW          34.1950    25.9030    25.6910 OW            1 RES     
    3025 HW1         33.5160    26.0480    24.9730 HW1           1 RES     
    3026 HW2         34.8640    26.6460    25.6720 HW2           1 RES     
    3027 OW          12.0210    32.9870    23.3700 OW            1 RES     
    3028 HW1         12.3600    32.1140    23.0230 HW1           1 RES     
    3029 HW2         11.1070    32.8610    23.7560 HW2           1 RES     
    3030 OW           6.2500    35.5540    29.0090 OW            1 RES     
    3031 HW1          5.4210    35.6030    29.5640 HW1           1 RES     
    3032 HW2          6.6830    36.4550    28.9770 HW2           1 RES     
    3033 OW          11.0780    13.6270    15.2700 OW            1 RES     
    3034 HW1         10.2730    14.0840    14.8940 HW1           1 RES     
    3035 HW2         11.3230    12.8510    14.6880 HW2           1 RES     
    3036 OW          32.8460     7.3970    25.4510 OW            1 RES     
    3037 HW1         32.1690     6.6640    25.5040 HW1           1 RES     
    3038 HW2         32.4520     8.2420    25.8140 HW2           1 RES     
    3039 OW          14.3230    18.1920    12.8590 OW            1 RES     
    3040 HW1         14.4750    18.2310    11.8720 HW1           1 RES     
    3041 HW2         14.3560    19.1170    13.2390 HW2           1 RES     
    3042 OW          35.5250    11.3610    22.2860 OW            1 RES     
    3043 HW1         34.7290    10.8280    22.5700 HW1           1 RES     
    3044 HW2         36.0840    10.8180    21.6590 HW2           1 RES     
    3045 OW           8.9050    29.7120     9.7460 OW            1 RES     
    3046 HW1          8.8200    29.3070    10.6560 HW1           1 RES     
    3047 HW2          8.4880    29.1040     9.0700 HW2           1 RES     
    3048 OW           8.1540    31.3460    30.1760 OW            1 RES     
    3049 HW1          8.9070    30.6880    30.1760 HW1           1 RES     
    3050 HW2          7.2820    30.8560    30.1760 HW2           1 RES     
    3051 OW          17.0430    38.3410    25.6670 OW            1 RES     
    3052 HW1         16.6600    38.2310    24.7510 HW1           1 RES     
    3053 HW2         17.4830    37.4880    25.9500 HW2           1 RES     
    3054 OW          24.1030    30.5910    13.3130 OW            1 RES     
    3055 HW1         23.6590    29.9370    13.9250 HW1           1 RES     
    3056 HW2         24.1280    30.2150    12.3860 HW2           1 RES     
    3057 OW          19.5410     5.8320    22.2520 OW            1 RES     
    3058 HW1         20.0190     6.6310    21.8890 HW1           1 RES     
    3059 HW2         20.1670     5.3000    22.8230 HW2           1 RES     
    3060 OW           0.7770     8.7930    22.1270 OW            1 RES     
    3061 HW1         -0.1320     9.0200    21.7790 HW1           1 RES     
    3062 HW2          1.3990     9.5580    21.9620 HW2           1 RES     
    3063 OW          24.9200    16.5490    26.4300 OW            1 RES     
    3064 HW1         24.5820    17.4720    26.2470 HW1           1 RES     
    3065 HW2         24.3630    15.8840    25.9330 HW2           1 RES     
    3066 OW          14.5940    12.6810    12.5020 OW            1 RES     
    3067 HW1         15.4080    13.2220    12.2930 HW1           1 RES     
    3068 HW2         13.8010    13.0790    12.0390 HW2           1 RES     
    3069 OW          20.9430     5.8310    19.9040 OW            1 RES     
    3070 HW1         20.5120     5.0830    20.4070 HW1           1 RES     
    3071 HW2         20.2760     6.2440    19.2830 HW2           1 RES     
    3072 OW          21.9570     0.8730    15.6570 OW            1 RES     
    3073 HW1         21.0890     0.4190    15.4560 HW1           1 RES     
    3074 HW2         22.6720     0.1850    15.7840 HW2           1 RES     
    3075 OW          10.4550    18.0340     7.5500 OW            1 RES     
    3076 HW1          9.7560    17.7730     6.8850 HW1           1 RES     
    3077 HW2         10.3200    18.9880     7.8190 HW2           1 RES     
    3078 OW           4.0270    12.8350     6.8800 OW            1 RES     
    3079 HW1          3.0920    13.1860     6.9250 HW1           1 RES     
    3080 HW2          4.6700    13.6010     6.8680 HW2           1 RES     
    3081 OW           1.8580    20.3010    16.4580 OW            1 RES     
    3082 HW1          1.1470    20.9960    16.5580 HW1           1 RES     
    3083 HW2          2.5680    20.6360    15.8380 HW2           1 RES     
    3084 OW          36.5260    15.7770     7.0080 OW            1 RES     
    3085 HW1         35.5560    15.5820     6.8670 HW1           1 RES     
    3086 HW2         36.6370    16.3460     7.8230 HW2           1 RES     
    3087 OW          35.1420    31.4040    14.1150 OW            1 RES     
    3088 HW1         35.1240    32.1320    13.4310 HW1           1 RES     
    3089 HW2         34.5440    31.6470    14.8780 HW2           1 RES     
    3090 OW          12.3240     1.5200    22.9870 OW            1 RES     
    3091 HW1         13.0350     1.9150    23.5670 HW1           1 RES     
    3092 HW2         12.3820     0.5220    23.0190 HW2           1 RES     
    3093 OW           8.8540    29.6380    20.8260 OW            1 RES     
    3094 HW1          9.6730    30.2090    20.7940 HW1           1 RES     
    3095 HW2          9.1010    28.6890    20.6310 HW2           1 RES     
    3096 OW          31.1690    20.9270    19.0240 OW            1 RES     
    3097 HW1         32.1330    21.1700    18.9200 HW1           1 RES     
    3098 HW2         30.7150    20.9740    18.1340 HW2           1 RES     
    3099 OW          21.0040     0.5110    26.3810 OW            1 RES     
    3100 HW1         20.0410     0.2560    26.3000 HW1           1 RES     
    3101 HW2         21.0880     1.5070    26.3590 HW2           1 RES     
    3102 OW           9.2270    12.9190    24.9810 OW            1 RES     
    3103 HW1          8.7160    12.1910    25.4380 HW1           1 RES     
    3104 HW2          8.6160    13.6900    24.7980 HW2           1 RES     
    3105 OW          19.8630    26.9550     7.6850 OW            1 RES     
    3106 HW1         19.4650    26.0380     7.6590 HW1           1 RES     
    3107 HW2         19.5890    27.4610     6.8670 HW2           1 RES     
    3108 OW          19.6610    21.4700    19.4650 OW            1 RES     
    3109 HW1         19.0760    20.6790    19.2860 HW1           1 RES     
    3110 HW2         20.4580    21.4380    18.8620 HW2           1 RES     
    3111 OW          34.6970    19.9050    21.9350 OW            1 RES     
    3112 HW1         34.8870    20.8820    21.8410 HW1           1 RES     
    3113 HW2         35.3390    19.3840    21.3720 HW2           1 RES     
    3114 OW          -0.2980    33.0580    27.6970 OW            1 RES     
    3115 HW1         -0.0240    32.1670    28.0560 HW1           1 RES     
    3116 HW2          0.3740    33.3670    27.0230 HW2           1 RES     
    3117 OW           6.4250    16.7920    10.5110 OW            1 RES     
    3118 HW1          5.4710    16.6040    10.2790 HW1           1 RES     
    3119 HW2          6.8530    17.3090     9.7700 HW2           1 RES     
    3120 OW          14.4000    30.2610    22.5780 OW            1 RES     
    3121 HW1         14.1510    31.1460    22.1870 HW1           1 RES     
    3122 HW2         15.3920    30.2180    22.7030 HW2           1 RES     
    3123 OW          23.4010    11.5990     7.8230 OW            1 RES     
    3124 HW1         23.8700    10.7170     7.8400 HW1           1 RES     
    3125 HW2         22.8530    11.6690     6.9890 HW2           1 RES     
    3126 OW          16.7650    31.8850    21.0210 OW            1 RES     
    3127 HW1         17.2030    32.4570    20.3280 HW1           1 RES     
    3128 HW2         15.7760    32.0340    21.0000 HW2           1 RES     
    3129 OW           8.4110    16.4040    29.4080 OW            1 RES     
    3130 HW1          9.1980    16.2500    28.8110 HW1           1 RES     
    3131 HW2          8.0290    15.5240    29.6900 HW2           1 RES     
    3132 OW           9.9670    14.4450    30.0160 OW            1 RES     
    3133 HW1         10.4030    13.5570    29.8710 HW1           1 RES     
    3134 HW2         10.6660    15.1600    30.0340 HW2           1 RES     
    3135 OW           3.0660    34.3530    21.5180 OW            1 RES     
    3136 HW1          4.0210    34.0560    21.5050 HW1           1 RES     
    3137 HW2          2.4670    33.5530    21.4700 HW2           1 RES     
    3138 OW           4.6800    32.5360     9.8400 OW            1 RES     
    3139 HW1          3.8250    32.1610     9.4830 HW1           1 RES     
    3140 HW2          5.3290    32.6600     9.0890 HW2           1 RES     
    3141 OW          21.9950     9.4460    19.5660 OW            1 RES     
    3142 HW1         21.3440     9.0560    18.9160 HW1           1 RES     
    3143 HW2         21.9220     8.9650    20.4400 HW2           1 RES     
    3144 OW           5.2690    21.0100    30.0960 OW            1 RES     
    3145 HW1          5.3080    21.8600    29.5710 HW1           1 RES     
    3146 HW2          4.5440    20.4260    29.7330 HW2           1 RES     
    3147 OW          17.1940     8.3380    10.3700 OW            1 RES     
    3148 HW1         16.9990     9.0230     9.6680 HW1           1 RES     
    3149 HW2         17.1630     7.4250     9.9630 HW2           1 RES     
    3150 OW          19.9570     2.8320    16.3590 OW            1 RES     
    3151 HW1         19.2730     2.1380    16.5790 HW1           1 RES     
    3152 HW2         20.8580     2.5200    16.6610 HW2           1 RES     
    3153 OW          34.5460    -1.1750    29.6010 OW            1 RES     
    3154 HW1         35.0010    -0.8840    30.4420 HW1           1 RES     
    3155 HW2         35.1180    -0.9400    28.8140 HW2           1 RES     
    3156 OW           0.6100    11.6770     7.9030 OW            1 RES     
    3157 HW1          1.5110    11.7600     7.4800 HW1           1 RES     
    3158 HW2          0.0580    12.4780     7.6740 HW2           1 RES     
    3159 OW          37.1770    30.3150    22.9720 OW            1 RES     
    3160 HW1         38.1180    30.6370    23.0720 HW1           1 RES     
    3161 HW2         36.5640    31.1010    22.8810 HW2           1 RES     
    3162 OW          38.7390    31.6970    17.4850 OW            1 RES     
    3163 HW1         37.9070    31.4700    17.9890 HW1           1 RES     
    3164 HW2         38.7520    31.1970    16.6190 HW2           1 RES     
    3165 OW          29.4010     9.0330    14.2400 OW            1 RES     
    3166 HW1         28.7580     8.4440    13.7510 HW1           1 RES     
    3167 HW2         30.1250     9.3290    13.6160 HW2           1 RES     
    3168 OW          15.8430    27.0200    12.2960 OW            1 RES     
    3169 HW1         15.1460    26.5350    11.7690 HW1           1 RES     
    3170 HW2         15.7680    26.7670    13.2610 HW2           1 RES     
    3171 OW          26.7480    19.7700    10.3000 OW            1 RES     
    3172 HW1         26.7800    19.0750     9.5830 HW1           1 RES     
    3173 HW2         27.5450    20.3680    10.2210 HW2           1 RES     
    3174 OW           4.0130    37.4450    13.4100 OW            1 RES     
    3175 HW1          4.8440    37.7440    12.9420 HW1           1 RES     
    3176 HW2          4.2200    36.6500    13.9820 HW2           1 RES     
    3177 OW          19.7420    28.4690    19.6270 OW            1 RES     
    3178 HW1         20.1210    28.2840    18.7210 HW1           1 RES     
    3179 HW2         20.1530    29.3020    19.9980 HW2           1 RES     
    3180 OW           6.4790    33.4970    26.8320 OW            1 RES     
    3181 HW1          6.6080    32.8750    26.0600 HW1           1 RES     
    3182 HW2          7.3320    33.5680    27.3490 HW2           1 RES     
    3183 OW          14.0880     4.3450    17.8700 OW            1 RES     
    3184 HW1         13.1710     4.6030    17.5700 HW1           1 RES     
    3185 HW2         14.6880     4.2580    17.0750 HW2           1 RES     
    3186 OW          39.1870    10.3530    21.4860 OW            1 RES     
    3187 HW1         38.7150    10.8310    22.2260 HW1           1 RES     
    3188 HW2         38.8240     9.4250    21.4040 HW2           1 RES     
    3189 OW           2.6810    27.3920    21.1340 OW            1 RES     
    3190 HW1          2.0650    26.7830    21.6340 HW1           1 RES     
    3191 HW2          2.9260    26.9730    20.2590 HW2           1 RES     
    3192 OW          21.1450     7.4270    11.1110 OW            1 RES     
    3193 HW1         20.2560     7.7570    10.7960 HW1           1 RES     
    3194 HW2         21.2010     6.4370    10.9760 HW2           1 RES     
    3195 OW          10.1200    13.8990     9.4000 OW            1 RES     
    3196 HW1          9.2960    13.8490     8.8370 HW1           1 RES     
    3197 HW2         10.5230    12.9870     9.4850 HW2           1 RES     
    3198 OW           3.7460    37.3930    20.2410 OW            1 RES     
    3199 HW1          4.6070    37.8700    20.4140 HW1           1 RES     
    3200 HW2          3.0400    38.0580    19.9960 HW2           1 RES     
    3201 OW          27.3600     9.7070    16.0080 OW            1 RES     
    3202 HW1         28.1930     9.7400    16.5590 HW1           1 RES     
    3203 HW2         26.6500     9.2080    16.5050 HW2           1 RES     
    3204 OW           8.1750    20.0800    29.1270 OW            1 RES     
    3205 HW1          7.8460    20.7700    28.4830 HW1           1 RES     
    3206 HW2          8.9840    20.4250    29.6020 HW2           1 RES     
    3207 OW          19.8020    26.8330    24.9860 OW            1 RES     
    3208 HW1         20.1350    26.6880    24.0550 HW1           1 RES     
    3209 HW2         20.1940    26.1410    25.5930 HW2           1 RES     
    3210 OW          16.7860    -1.6860    21.8990 OW            1 RES     
    3211 HW1         16.3100    -0.8290    21.7050 HW1           1 RES     
    3212 HW2         16.4780    -2.0480    22.7790 HW2           1 RES     
    3213 OW          26.0180    20.0110    25.4100 OW            1 RES     
    3214 HW1         25.4030    20.0470    24.6230 HW1           1 RES     
    3215 HW2         26.0030    19.0920    25.8050 HW2           1 RES     
    3216 OW           6.1730     2.5930    22.5850 OW            1 RES     
    3217 HW1          7.0020     2.6870    23.1350 HW1           1 RES     
    3218 HW2          5.3850     2.4650    23.1870 HW2           1 RES     
    3219 OW          14.2330    -0.6020    23.4840 OW            1 RES     
    3220 HW1         14.4810     0.2850    23.8720 HW1           1 RES     
    3221 HW2         14.2710    -0.5530    22.4850 HW2           1 RES     
    3222 OW          22.4780    28.1520    19.2460 OW            1 RES     
    3223 HW1         22.2960    28.7580    20.0200 HW1           1 RES     
    3224 HW2         23.3830    27.7400    19.3490 HW2           1 RES     
    3225 OW          22.9210    22.4990    25.2380 OW            1 RES     
    3226 HW1         23.1800    21.9120    26.0040 HW1           1 RES     
    3227 HW2         22.0390    22.9300    25.4310 HW2           1 RES     
    3228 OW          16.7340    30.9420    10.9330 OW            1 RES     
    3229 HW1         17.2760    30.2010    10.5380 HW1           1 RES     
    3230 HW2         16.3010    31.4660    10.1990 HW2           1 RES     
    3231 OW          14.6570    33.5680    29.2370 OW            1 RES     
    3232 HW1         14.2830    33.0550    30.0090 HW1           1 RES     
    3233 HW2         15.6180    33.7810    29.4120 HW2           1 RES     
    3234 OW          37.6210     7.1320    12.0980 OW            1 RES     
    3235 HW1         37.1440     6.2530    12.1110 HW1           1 RES     
    3236 HW2         38.5570     7.0000    11.7720 HW2           1 RES     
    3237 OW           8.1630     5.4590    30.2460 OW            1 RES     
    3238 HW1          8.2790     4.9060    29.4210 HW1           1 RES     
    3239 HW2          7.1880     5.5650    30.4430 HW2           1 RES     
    3240 OW          38.0720    24.7260    29.2350 OW            1 RES     
    3241 HW1         37.9670    23.7570    29.4560 HW1           1 RES     
    3242 HW2         39.0440    24.9450    29.1430 HW2           1 RES     
    3243 OW           8.2020    33.4450    19.2020 OW            1 RES     
    3244 HW1          8.5900    32.5390    19.0370 HW1           1 RES     
    3245 HW2          8.2410    33.9850    18.3610 HW2           1 RES     
    3246 OW          21.8800     2.0600    23.4960 OW            1 RES     
    3247 HW1         21.8160     2.2770    22.5230 HW1           1 RES     
    3248 HW2         21.1270     2.5000    23.9860 HW2           1 RES     
    3249 OW           4.8690    14.7450    29.5300 OW            1 RES     
    3250 HW1          5.8160    14.9710    29.7540 HW1           1 RES     
    3251 HW2          4.7300    14.8290    28.5430 HW2           1 RES     
    3252 OW          27.2410     8.6290    24.3060 OW            1 RES     
    3253 HW1         27.4870     7.6660    24.4040 HW1           1 RES     
    3254 HW2         26.3420     8.7020    23.8730 HW2           1 RES     
    3255 OW          11.4850    29.0390    15.1190 OW            1 RES     
    3256 HW1         11.1130    28.2520    15.6120 HW1           1 RES     
    3257 HW2         11.3540    29.8670    15.6650 HW2           1 RES     
    3258 OW          14.5190     1.7410    17.4760 OW            1 RES     
    3259 HW1         14.3450     2.1420    16.5770 HW1           1 RES     
    3260 HW2         13.6920     1.8040    18.0350 HW2           1 RES     
    3261 OW          36.3000     0.2780    18.4750 OW            1 RES     
    3262 HW1         37.2490     0.4910    18.2470 HW1           1 RES     
    3263 HW2         35.8200     1.1190    18.7260 HW2           1 RES     
    3264 OW           1.8080    19.8190     9.4840 OW            1 RES     
    3265 HW1          2.4650    20.5350     9.2520 HW1           1 RES     
    3266 HW2          0.9100    20.2290     9.6450 HW2           1 RES     
    3267 OW          27.5300    31.3240    19.6470 OW            1 RES     
    3268 HW1         28.2610    31.9480    19.9200 HW1           1 RES     
    3269 HW2         27.7000    30.4190    20.0370 HW2           1 RES     
    3270 OW          13.1880    36.5290    11.1640 OW            1 RES     
    3271 HW1         12.3160    36.0960    11.3900 HW1           1 RES     
    3272 HW2         13.4900    37.0920    11.9330 HW2           1 RES     
    3273 OW          25.6490    18.5120    18.0860 OW            1 RES     
    3274 HW1         25.5710    18.3770    19.0730 HW1           1 RES     
    3275 HW2         24.8390    18.9920    17.7490 HW2           1 RES     
    3276 OW           4.5240    12.4560    10.5200 OW            1 RES     
    3277 HW1          4.1850    11.9000     9.7610 HW1           1 RES     
    3278 HW2          4.3570    11.9790    11.3830 HW2           1 RES     
    3279 OW          23.6100    18.8730    12.1200 OW            1 RES     
    3280 HW1         22.8350    19.3560    12.5240 HW1           1 RES     
    3281 HW2         24.0200    18.2680    12.8030 HW2           1 RES     
    3282 OW          34.5840    25.1620    23.1950 OW            1 RES     
    3283 HW1         35.3100    24.4750    23.1550 HW1           1 RES     
    3284 HW2         33.6940    24.7110    23.1230 HW2           1 RES     
    3285 OW          -0.5120    29.9240    19.6880 OW            1 RES     
    3286 HW1         -0.2230    30.8040    19.3110 HW1           1 RES     
    3287 HW2         -0.5670    29.2480    18.9530 HW2           1 RES     
    3288 OW           4.0200    14.4920    17.7730 OW            1 RES     
    3289 HW1          4.8000    14.9650    17.3640 HW1           1 RES     
    3290 HW2          4.2720    13.5450    17.9730 HW2           1 RES     
    3291 OW           6.7080    -0.4150    22.1490 OW            1 RES     
    3292 HW1          6.0720    -0.2860    22.9090 HW1           1 RES     
    3293 HW2          6.9810     0.4770    21.7870 HW2           1 RES     
    3294 OW          39.0630     7.4420    15.6880 OW            1 RES     
    3295 HW1         39.1880     7.1860    14.7300 HW1           1 RES     
    3296 HW2         38.0900     7.4190    15.9160 HW2           1 RES     
    3297 OW          36.3510    19.3630    27.0860 OW            1 RES     
    3298 HW1         35.4160    19.6690    27.2590 HW1           1 RES     
    3299 HW2         36.9950    20.0470    27.4300 HW2           1 RES     
    3300 OW          30.8590    27.9600    21.3120 OW            1 RES     
    3301 HW1         30.6640    27.9390    22.2920 HW1           1 RES     
    3302 HW2         31.6950    28.4840    21.1490 HW2           1 RES     
    3303 OW           4.1610    11.6940    15.3690 OW            1 RES     
    3304 HW1          4.2570    12.2840    16.1700 HW1           1 RES     
    3305 HW2          3.9370    10.7650    15.6640 HW2           1 RES     
    3306 OW           2.2870    29.2990     7.6210 OW            1 RES     
    3307 HW1          2.6410    28.9420     8.4850 HW1           1 RES     
    3308 HW2          2.0210    28.5380     7.0290 HW2           1 RES     
    3309 OW          30.3960    26.1700    26.3190 OW            1 RES     
    3310 HW1         30.3230    26.4250    27.2820 HW1           1 RES     
    3311 HW2         30.7530    26.9430    25.7950 HW2           1 RES     
    3312 OW          21.0470    19.3940    20.9010 OW            1 RES     
    3313 HW1         20.2820    19.9550    21.2160 HW1           1 RES     
    3314 HW2         21.3440    19.7090    20.0000 HW2           1 RES     
    3315 OW          24.1760    13.2270    10.9020 OW            1 RES     
    3316 HW1         24.5960    12.3260    10.8030 HW1           1 RES     
    3317 HW2         24.1760    13.4920    11.8660 HW2           1 RES     
    3318 OW          29.9490     7.9940    30.0620 OW            1 RES     
    3319 HW1         29.1990     7.4500    30.4380 HW1           1 RES     
    3320 HW2         30.8170     7.6740    30.4420 HW2           1 RES     
    3321 OW           1.6790    30.2860    27.3340 OW            1 RES     
    3322 HW1          0.7420    30.3920    27.0030 HW1           1 RES     
    3323 HW2          1.7430    29.4640    27.9000 HW2           1 RES     
    3324 OW          38.2820    11.5270    13.0780 OW            1 RES     
    3325 HW1         38.4030    11.9050    12.1610 HW1           1 RES     
    3326 HW2         37.9550    10.5840    13.0090 HW2           1 RES     
    3327 OW          16.2470    -2.0480     7.9580 OW            1 RES     
    3328 HW1         16.2320    -1.5950     7.0660 HW1           1 RES     
    3329 HW2         17.1730    -2.0130     8.3340 HW2           1 RES     
    3330 OW          18.7530     0.8140    12.8350 OW            1 RES     
    3331 HW1         17.8070     0.5040    12.9210 HW1           1 RES     
    3332 HW2         18.7780     1.6680    12.3140 HW2           1 RES     
    3333 OW           2.6380    28.3220    29.6250 OW            1 RES     
    3334 HW1          3.5990    28.4780    29.8510 HW1           1 RES     
    3335 HW2          2.0720    29.0120    30.0760 HW2           1 RES     
    3336 OW          33.2720     2.2850    10.8950 OW            1 RES     
    3337 HW1         34.0140     2.6430    10.3310 HW1           1 RES     
    3338 HW2         33.2070     1.2940    10.7720 HW2           1 RES     
    3339 OW           7.3840    12.2720    22.9820 OW            1 RES     
    3340 HW1          8.3220    12.6080    22.9040 HW1           1 RES     
    3341 HW2          6.9430    12.6930    23.7750 HW2           1 RES     
    3342 OW          -0.0220     2.1850    19.8770 OW            1 RES     
    3343 HW1          0.9300     2.2320    20.1780 HW1           1 RES     
    3344 HW2         -0.0780     2.4220    18.9070 HW2           1 RES     
    3345 OW           6.4270    25.2560    27.9950 OW            1 RES     
    3346 HW1          5.4880    24.9660    27.8130 HW1           1 RES     
    3347 HW2          7.0630    24.5770    27.6270 HW2           1 RES     
    3348 OW          32.4920    31.3030    26.5920 OW            1 RES     
    3349 HW1         33.3770    31.7020    26.3540 HW1           1 RES     
    3350 HW2         32.6350    30.4520    27.0970 HW2           1 RES     
    3351 OW          33.2660    18.6200    12.0060 OW            1 RES     
    3352 HW1         33.0490    17.6550    12.1540 HW1           1 RES     
    3353 HW2         34.0120    18.8920    12.6130 HW2           1 RES     
    3354 OW           1.6080    33.4360    13.2990 OW            1 RES     
    3355 HW1          1.8680    32.5000    13.0670 HW1           1 RES     
    3356 HW2          2.3600    33.8800    13.7860 HW2           1 RES     
    3357 OW          26.9790    37.9800    14.1280 OW            1 RES     
    3358 HW1         26.0510    38.3400    14.2190 HW1           1 RES     
    3359 HW2         26.9400    36.9940    13.9650 HW2           1 RES     
    3360 OW          20.0350    30.6920    10.7480 OW            1 RES     
    3361 HW1         19.8180    31.4620    11.3480 HW1           1 RES     
    3362 HW2         20.2870    29.8990    11.3020 HW2           1 RES     
    3363 OW          32.4840    13.9510    10.7170 OW            1 RES     
    3364 HW1         31.5920    13.5300    10.8770 HW1           1 RES     
    3365 HW2         33.1560    13.2410    10.5060 HW2           1 RES     
    3366 OW          16.6300    25.6120    18.7560 OW            1 RES     
    3367 HW1         16.8410    24.7810    19.2690 HW1           1 RES     
    3368 HW2         15.6400    25.6890    18.6370 HW2           1 RES     
    3369 OW           5.5450    37.8070    30.2880 OW            1 RES     
    3370 HW1          5.5670    38.3340    29.4390 HW1           1 RES     
    3371 HW2          4.6210    37.4560    30.4400 HW2           1 RES     
    3372 OW          31.2220    23.8890    21.5740 OW            1 RES     
    3373 HW1         32.1820    24.1620    21.6190 HW1           1 RES     
    3374 HW2         31.1310    22.9370    21.8660 HW2           1 RES     
    3375 OW           8.3590     6.7160    10.8870 OW            1 RES     
    3376 HW1          9.0840     6.1360    11.2550 HW1           1 RES     
    3377 HW2          7.6220     6.7970    11.5590 HW2           1 RES     
    3378 OW          31.4330     9.0530     9.6210 OW            1 RES     
    3379 HW1         30.9220     9.0870     8.7630 HW1           1 RES     
    3380 HW2         30.9240     9.5400    10.3320 HW2           1 RES     
    3381 OW          35.8650     8.6250    17.1750 OW            1 RES     
    3382 HW1         35.3550     9.4230    16.8560 HW1           1 RES     
    3383 HW2         36.8460     8.8010    17.0930 HW2           1 RES     
    3384 OW          -0.8240    25.6270    25.5180 OW            1 RES     
    3385 HW1          0.0140    25.2480    25.9090 HW1           1 RES     
    3386 HW2         -1.0050    25.1960    24.6340 HW2           1 RES     
    3387 OW          26.8730     6.1870    16.6380 OW            1 RES     
    3388 HW1         26.2970     5.4180    16.3620 HW1           1 RES     
    3389 HW2         26.3400     7.0320    16.6070 HW2           1 RES     
    3390 OW          -0.7680    16.5720    23.6680 OW            1 RES     
    3391 HW1         -0.7080    17.5570    23.5080 HW1           1 RES     
    3392 HW2          0.1490    16.2010    23.8140 HW2           1 RES     
    3393 OW          14.1550    10.4640    10.8840 OW            1 RES     
    3394 HW1         13.5300    10.1020    10.1930 HW1           1 RES     
    3395 HW2         14.8340     9.7680    11.1180 HW2           1 RES     
    3396 OW          20.0080    32.3270    16.2570 OW            1 RES     
    3397 HW1         19.5500    31.4400    16.3070 HW1           1 RES     
    3398 HW2         20.9980    32.1900    16.2270 HW2           1 RES     
    3399 OW          39.0570    38.0160    21.5400 OW            1 RES     
    3400 HW1         39.0310    37.0590    21.2530 HW1           1 RES     
    3401 HW2         38.1250    38.3410    21.7050 HW2           1 RES     
    3402 OW          17.0730    20.7020    10.8100 OW            1 RES     
    3403 HW1         17.2690    21.5440    10.3080 HW1           1 RES     
    3404 HW2         17.2550    19.9130    10.2230 HW2           1 RES     
    3405 OW          18.9790     2.5910    24.5140 OW            1 RES     
    3406 HW1         19.2560     3.3820    25.0590 HW1           1 RES     
    3407 HW2         19.0070     1.7680    25.0810 HW2           1 RES     
    3408 OW           6.0650     4.9640    18.8110 OW            1 RES     
    3409 HW1          7.0010     4.6500    18.6560 HW1           1 RES     
    3410 HW2          5.4930     4.1890    19.0790 HW2           1 RES     
    3411 OW          20.2740    30.9840    14.2810 OW            1 RES     
    3412 HW1         20.9210    30.4670    14.8410 HW1           1 RES     
    3413 HW2         20.1160    30.4980    13.4210 HW2           1 RES     
    3414 OW          14.2220    24.2870    20.3710 OW            1 RES     
    3415 HW1         15.1740    24.3990    20.6550 HW1           1 RES     
    3416 HW2         13.9220    25.1040    19.8790 HW2           1 RES     
    3417 OW           7.2920    25.4890     9.1040 OW            1 RES     
    3418 HW1          8.2140    25.8240     8.9130 HW1           1 RES     
    3419 HW2          6.6220    26.0810     8.6540 HW2           1 RES     
    3420 OW          33.1670    24.2420    15.4420 OW            1 RES     
    3421 HW1         32.5750    23.4910    15.1530 HW1           1 RES     
    3422 HW2         32.6480    25.0970    15.4390 HW2           1 RES     
    3423 OW           2.6470     5.4050     8.9010 OW            1 RES     
    3424 HW1          2.8490     4.9180     9.7500 HW1           1 RES     
    3425 HW2          3.3130     5.1460     8.2010 HW2           1 RES     
    3426 OW          38.6910     0.3290    23.3200 OW            1 RES     
    3427 HW1         37.6990     0.4490    23.3160 HW1           1 RES     
    3428 HW2         38.9100    -0.6400    23.4290 HW2           1 RES     
    3429 OW          27.2900    15.2880    26.4460 OW            1 RES     
    3430 HW1         26.4540    14.9310    26.8610 HW1           1 RES     
    3431 HW2         27.1570    16.2480    26.2000 HW2           1 RES     
    3432 OW          29.0890    27.7260    19.8060 OW            1 RES     
    3433 HW1         29.7620    27.2130    19.2750 HW1           1 RES     
    3434 HW2         28.7970    27.1810    20.5920 HW2           1 RES     
    3435 OW          33.4030    11.5440     8.6180 OW            1 RES     
    3436 HW1         33.7730    12.4600     8.4660 HW1           1 RES     
    3437 HW2         32.5550    11.6090     9.1450 HW2           1 RES     
    3438 OW          10.9740    31.7590    13.4510 OW            1 RES     
    3439 HW1         11.6270    31.5470    14.1770 HW1           1 RES     
    3440 HW2         10.0580    31.8510    13.8430 HW2           1 RES     
    3441 OW          26.0230    20.7930    18.2070 OW            1 RES     
    3442 HW1         26.9010    20.3160    18.2290 HW1           1 RES     
    3443 HW2         25.9990    21.4120    17.4220 HW2           1 RES     
    3444 OW          12.5840    22.7480    27.2700 OW            1 RES     
    3445 HW1         13.2390    23.3280    26.7880 HW1           1 RES     
    3446 HW2         11.6650    23.1340    27.1780 HW2           1 RES     
    3447 OW          23.0420    18.5500    28.7080 OW            1 RES     
    3448 HW1         23.5220    19.2370    29.2540 HW1           1 RES     
    3449 HW2         23.6280    17.7480    28.5900 HW2           1 RES     
    3450 OW          26.6630    34.3330    24.4130 OW            1 RES     
    3451 HW1         26.5080    35.2800    24.1360 HW1           1 RES     
    3452 HW2         26.2830    33.7160    23.7230 HW2           1 RES     
    3453 OW           6.1670    13.8350    13.0490 OW            1 RES     
    3454 HW1          6.6530    13.4990    12.2440 HW1           1 RES     
    3455 HW2          6.8190    13.9890    13.7920 HW2           1 RES     
    3456 OW          33.5140     1.7930    20.5330 OW            1 RES     
    3457 HW1         33.6130     1.0320    19.8920 HW1           1 RES     
    3458 HW2         32.7820     2.3990    20.2220 HW2           1 RES     
    3459 OW          16.4150    -0.7950    19.5050 OW            1 RES     
    3460 HW1         15.6070    -0.2220    19.3780 HW1           1 RES     
    3461 HW2         16.5080    -1.4180    18.7280 HW2           1 RES     
    3462 OW           5.0500    16.2970    25.5530 OW            1 RES     
    3463 HW1          4.8660    17.1550    25.0760 HW1           1 RES     
    3464 HW2          4.3060    15.6520    25.3780 HW2           1 RES     
    3465 OW          28.6720    33.4370    10.5900 OW            1 RES     
    3466 HW1         29.1780    34.0610     9.9960 HW1           1 RES     
    3467 HW2         28.7470    32.5050    10.2350 HW2           1 RES     
    3468 OW          31.3480     3.6460     7.4250 OW            1 RES     
    3469 HW1         30.8350     2.9940     6.8670 HW1           1 RES     
    3470 HW2         32.0580     4.0770     6.8680 HW2           1 RES     
    3471 OW          26.6790    14.4920    15.1900 OW            1 RES     
    3472 HW1         25.7130    14.7210    15.3040 HW1           1 RES     
    3473 HW2         26.7730    13.5110    15.0200 HW2           1 RES     
    3474 OW          32.5370    34.5240    29.3610 OW            1 RES     
    3475 HW1         32.2360    33.7370    28.8230 HW1           1 RES     
    3476 HW2         33.1600    34.2180    30.0810 HW2           1 RES     
    3477 OW          17.5620    26.0810    25.5130 OW            1 RES     
    3478 HW1         17.6220    26.9950    25.9120 HW1           1 RES     
    3479 HW2         16.6300    25.7320    25.6160 HW2           1 RES     
    3480 OW           3.6340    14.8200    20.6380 OW            1 RES     
    3481 HW1          4.6220    14.7400    20.7650 HW1           1 RES     
    3482 HW2          3.2360    15.3040    21.4180 HW2           1 RES     
    3483 OW          13.5510     2.6620    21.5630 OW            1 RES     
    3484 HW1         13.6760     1.7200    21.2540 HW1           1 RES     
    3485 HW2         12.6520     2.9920    21.2740 HW2           1 RES     
    3486 OW          35.4260    12.5150    12.4120 OW            1 RES     
    3487 HW1         36.2060    11.8910    12.4470 HW1           1 RES     
    3488 HW2         35.1360    12.6340    11.4620 HW2           1 RES     
    3489 OW          38.2820     1.6460    26.7130 OW            1 RES     
    3490 HW1         37.3480     1.8310    27.0180 HW1           1 RES     
    3491 HW2         38.2620     1.2760    25.7840 HW2           1 RES     
    3492 OW           0.6420    35.7450    13.2100 OW            1 RES     
    3493 HW1          0.0440    34.9770    13.4390 HW1           1 RES     
    3494 HW2          0.0870    36.5460    12.9860 HW2           1 RES     
    3495 OW           1.7200    14.9510     7.5880 OW            1 RES     
    3496 HW1          1.1860    14.2730     7.0840 HW1           1 RES     
    3497 HW2          1.4500    14.9410     8.5510 HW2           1 RES     
    3498 OW          38.1300    35.6560    29.1070 OW            1 RES     
    3499 HW1         37.4750    36.2910    28.6990 HW1           1 RES     
    3500 HW2         38.6090    35.1590    28.3830 HW2           1 RES     
    3501 OW           3.0740    21.8820    25.3890 OW            1 RES     
    3502 HW1          4.0060    22.2360    25.3180 HW1           1 RES     
    3503 HW2          2.4280    22.5770    25.0730 HW2           1 RES     
    3504 OW          32.7870     8.7720     7.0750 OW            1 RES     
    3505 HW1         32.4860     7.8190     7.1110 HW1           1 RES     
    3506 HW2         32.0060     9.3610     6.8670 HW2           1 RES     
    3507 OW          36.6570    33.7860    24.2710 OW            1 RES     
    3508 HW1         36.7190    34.4050    23.4880 HW1           1 RES     
    3509 HW2         35.7280    33.8070    24.6400 HW2           1 RES     
    3510 OW          15.0300    16.1230    12.1710 OW            1 RES     
    3511 HW1         15.7200    16.4940    12.7930 HW1           1 RES     
    3512 HW2         15.4090    15.3360    11.6830 HW2           1 RES     
    3513 OW          23.0540    14.5410    23.5280 OW            1 RES     
    3514 HW1         22.4760    13.8210    23.1450 HW1           1 RES     
    3515 HW2         23.9450    14.1580    23.7740 HW2           1 RES     
    3516 OW          16.4650    23.2270    11.4770 OW            1 RES     
    3517 HW1         15.4730    23.3060    11.5690 HW1           1 RES     
    3518 HW2         16.7770    23.8010    10.7200 HW2           1 RES     
    3519 OW          23.1320    18.9750     9.2690 OW            1 RES     
    3520 HW1         23.7930    19.2620     9.9620 HW1           1 RES     
    3521 HW2         22.6110    19.7680     8.9550 HW2           1 RES     
    3522 OW           8.4510    37.7620    30.1730 OW            1 RES     
    3523 HW1          9.1850    38.3400    29.8200 HW1           1 RES     
    3524 HW2          7.6760    38.3340    30.4420 HW2           1 RES     
    3525 OW           2.6750    18.4430     6.9200 OW            1 RES     
    3526 HW1          2.3060    19.2220     7.4260 HW1           1 RES     
    3527 HW2          1.9860    17.7210     6.8680 HW2           1 RES     
    3528 OW           6.7430     2.0250    20.2420 OW            1 RES     
    3529 HW1          7.0480     1.4340    19.4970 HW1           1 RES     
    3530 HW2          7.0440     2.9630    20.0690 HW2           1 RES     
    3531 OW          21.2040    -0.3280    17.9920 OW            1 RES     
    3532 HW1         21.3760    -0.9020    17.1920 HW1           1 RES     
    3533 HW2         21.2500     0.6360    17.7270 HW2           1 RES     
    3534 OW           2.7480    17.4100    27.3970 OW            1 RES     
    3535 HW1          1.9520    16.8130    27.4940 HW1           1 RES     
    3536 HW2          3.5840    16.8630    27.4470 HW2           1 RES     
    3537 OW          29.6450    29.1250    11.4510 OW            1 RES     
    3538 HW1         29.8480    28.8340    12.3850 HW1           1 RES     
    3539 HW2         29.0690    28.4390    11.0050 HW2           1 RES     
    3540 OW          28.3800    15.7170    23.6880 OW            1 RES     
    3541 HW1         28.7570    16.5020    24.1790 HW1           1 RES     
    3542 HW2         28.7270    15.7120    22.7500 HW2           1 RES     
    3543 OW          20.3390     5.8730    26.0970 OW            1 RES     
    3544 HW1         19.4540     5.4520    26.2900 HW1           1 RES     
    3545 HW2         20.6890     5.5300    25.2250 HW2           1 RES     
    3546 OW          29.9290    32.6590    18.6740 OW            1 RES     
    3547 HW1         29.5090    33.5620    18.7600 HW1           1 RES     
    3548 HW2         30.9040    32.7620    18.4780 HW2           1 RES     
    3549 OW          29.3060    24.1690     9.7650 OW            1 RES     
    3550 HW1         28.6100    24.6540     9.2370 HW1           1 RES     
    3551 HW2         30.1710    24.6690     9.7170 HW2           1 RES     
    3552 OW           6.7170    10.0830    23.9680 OW            1 RES     
    3553 HW1          6.6760    10.1890    22.9750 HW1           1 RES     
    3554 HW2          7.5400    10.5300    24.3180 HW2           1 RES     
    3555 OW           5.4030    36.4580    22.2750 OW            1 RES     
    3556 HW1          5.8130    35.5600    22.1180 HW1           1 RES     
    3557 HW2          4.4200    36.4130    22.0920 HW2           1 RES     
    3558 OW          30.6250    22.3460    11.9110 OW            1 RES     
    3559 HW1         30.3800    22.3890    12.8790 HW1           1 RES     
    3560 HW2         29.8090    22.4990    11.3530 HW2           1 RES     
    3561 OW           8.5670    23.4240    20.9420 OW            1 RES     
    3562 HW1          8.2370    24.3420    20.7270 HW1           1 RES     
    3563 HW2          7.8450    22.9090    21.4060 HW2           1 RES     
    3564 OW           2.2560    -0.8600     8.0150 OW            1 RES     
    3565 HW1          2.9960    -0.6910     7.3660 HW1           1 RES     
    3566 HW2          1.6710    -1.5950     7.6710 HW2           1 RES     
    3567 OW           8.8220    35.5920    21.5520 OW            1 RES     
    3568 HW1          9.4610    36.3460    21.7060 HW1           1 RES     
    3569 HW2          7.9060    35.9590    21.3880 HW2           1 RES     
    3570 OW          38.3680    23.1310    24.0640 OW            1 RES     
    3571 HW1         37.4090    23.4090    24.0200 HW1           1 RES     
    3572 HW2         38.9510    23.9440    24.0770 HW2           1 RES     
    3573 OW          13.0970    15.3590    25.0800 OW            1 RES     
    3574 HW1         12.3900    15.4690    24.3820 HW1           1 RES     
    3575 HW2         12.7030    14.9240    25.8890 HW2           1 RES     
    3576 OW          18.7200    27.0300    28.6990 OW            1 RES     
    3577 HW1         18.0600    27.0130    29.4490 HW1           1 RES     
    3578 HW2         18.8460    26.1040    28.3440 HW2           1 RES     
    3579 OW          34.4900    26.8100     6.9410 OW            1 RES     
    3580 HW1         33.7590    27.4900     6.8850 HW1           1 RES     
    3581 HW2         35.3770    27.2670     6.8670 HW2           1 RES     
    3582 OW          29.5970    21.8560    24.9770 OW            1 RES     
    3583 HW1         30.4950    21.9650    24.5520 HW1           1 RES     
    3584 HW2         29.1960    22.7570    25.1470 HW2           1 RES     
    3585 OW          20.7340    34.2540    23.6760 OW            1 RES     
    3586 HW1         21.2130    35.1310    23.6660 HW1           1 RES     
    3587 HW2         21.3800    33.5180    23.4720 HW2           1 RES     
    3588 OW          18.8550    33.6730    12.4420 OW            1 RES     
    3589 HW1         19.8040    33.5100    12.1720 HW1           1 RES     
    3590 HW2         18.2660    32.9790    12.0270 HW2           1 RES     
    3591 OW          28.9290    24.3510    28.7750 OW            1 RES     
    3592 HW1         29.0990    24.6100    27.8240 HW1           1 RES     
    3593 HW2         29.6740    23.7690    29.1010 HW2           1 RES     
    3594 OW          25.8270    28.2490    24.3700 OW            1 RES     
    3595 HW1         26.7510    27.8720    24.3190 HW1           1 RES     
    3596 HW2         25.1610    27.5230    24.1960 HW2           1 RES     
    3597 OW          12.1880    24.0090    12.6670 OW            1 RES     
    3598 HW1         11.2550    23.6860    12.5110 HW1           1 RES     
    3599 HW2         12.4120    23.9280    13.6380 HW2           1 RES     
    3600 OW          15.3690    10.2040    18.6280 OW            1 RES     
    3601 HW1         15.9300     9.4330    18.9250 HW1           1 RES     
    3602 HW2         15.4250    10.2940    17.6330 HW2           1 RES     
    3603 OW           3.6010    28.0950    13.3540 OW            1 RES     
    3604 HW1          3.2840    27.2660    12.8960 HW1           1 RES     
    3605 HW2          2.9610    28.8420    13.1730 HW2           1 RES     
    3606 OW          24.1550    35.8110    20.4170 OW            1 RES     
    3607 HW1         23.6210    35.7950    21.2620 HW1           1 RES     
    3608 HW2         23.6230    36.2500    19.6940 HW2           1 RES     
    3609 OW           8.4070    12.2950     6.9550 OW            1 RES     
    3610 HW1          7.4480    12.0540     7.1000 HW1           1 RES     
    3611 HW2          8.4920    13.2880     6.8680 HW2           1 RES     
    3612 OW           7.0480     5.5110    24.8370 OW            1 RES     
    3613 HW1          6.0600     5.6320    24.9210 HW1           1 RES     
    3614 HW2          7.2570     4.5400    24.7180 HW2           1 RES     
    3615 OW          31.6440    31.3940    29.5690 OW            1 RES     
    3616 HW1         30.6560    31.4140    29.7170 HW1           1 RES     
    3617 HW2         31.9770    30.4560    29.6640 HW2           1 RES     
    3618 OW          10.7500    11.9590    19.7870 OW            1 RES     
    3619 HW1         11.7270    11.7670    19.8740 HW1           1 RES     
    3620 HW2         10.3080    11.2160    19.2830 HW2           1 RES     
    3621 OW           2.9690    25.8480    29.4410 OW            1 RES     
    3622 HW1          2.1040    26.2430    29.1320 HW1           1 RES     
    3623 HW2          2.8670    25.5140    30.3790 HW2           1 RES     
    3624 OW          32.5240    21.5890    29.6120 OW            1 RES     
    3625 HW1         32.5150    21.3790    28.6350 HW1           1 RES     
    3626 HW2         32.3730    20.7500    30.1350 HW2           1 RES     
    3627 OW           1.6160    12.5330    13.1860 OW            1 RES     
    3628 HW1          1.8620    13.4470    12.8650 HW1           1 RES     
    3629 HW2          0.6410    12.3750    13.0270 HW2           1 RES     
    3630 OW          26.7860    17.4810    16.3970 OW            1 RES     
    3631 HW1         26.1830    18.1580    15.9760 HW1           1 RES     
    3632 HW2         27.4600    17.9460    16.9720 HW2           1 RES     
    3633 OW          16.8900    10.5170    23.6160 OW            1 RES     
    3634 HW1         17.8430    10.2580    23.7670 HW1           1 RES     
    3635 HW2         16.5950    11.1440    24.3370 HW2           1 RES     
    3636 OW          30.5970     5.6200    14.0010 OW            1 RES     
    3637 HW1         30.3850     5.3270    14.9330 HW1           1 RES     
    3638 HW2         30.8530     6.5870    14.0060 HW2           1 RES     
    3639 OW          35.5350    17.6200    24.4380 OW            1 RES     
    3640 HW1         36.0160    18.4860    24.3060 HW1           1 RES     
    3641 HW2         36.2000    16.8770    24.5150 HW2           1 RES     
    3642 OW          31.2340    31.8550    24.0140 OW            1 RES     
    3643 HW1         30.5110    32.5420    23.9520 HW1           1 RES     
    3644 HW2         32.1230    32.2910    23.8720 HW2           1 RES     
    3645 OW          29.0490     7.7180    16.7020 OW            1 RES     
    3646 HW1         28.9250     6.8390    17.1600 HW1           1 RES     
    3647 HW2         28.5780     7.7040    15.8190 HW2           1 RES     
    3648 OW          38.1120    18.5030     9.2250 OW            1 RES     
    3649 HW1         37.2200    18.1310     9.4800 HW1           1 RES     
    3650 HW2         38.6750    17.7770     8.8290 HW2           1 RES     
    3651 OW           7.6520    15.6480    19.0640 OW            1 RES     
    3652 HW1          8.3330    16.3780    19.0300 HW1           1 RES     
    3653 HW2          8.1020    14.7810    19.2810 HW2           1 RES     
    3654 OW          31.0100     6.8790    18.2520 OW            1 RES     
    3655 HW1         30.5220     6.0260    18.4370 HW1           1 RES     
    3656 HW2         30.4510     7.6540    18.5480 HW2           1 RES     
    3657 OW          26.9440    31.7690    14.0270 OW            1 RES     
    3658 HW1         27.3120    32.6960    14.0970 HW1           1 RES     
    3659 HW2         26.2700    31.6210    14.7500 HW2           1 RES     
    3660 OW           6.3250    14.0820     8.5930 OW            1 RES     
    3661 HW1          5.6140    13.4270     8.8470 HW1           1 RES     
    3662 HW2          5.9050    14.8810     8.1630 HW2           1 RES     
    3663 OW          38.6100    15.8360    22.5690 OW            1 RES     
    3664 HW1         39.1880    15.0200    22.5750 HW1           1 RES     
    3665 HW2         39.1870    16.6530    22.5720 HW2           1 RES     
    3666 OW          30.0490    30.2330    19.0500 OW            1 RES     
    3667 HW1         30.3630    29.5150    19.6700 HW1           1 RES     
    3668 HW2         29.5510    29.8200    18.2870 HW2           1 RES     
    3669 OW          17.6310    17.1890    23.8060 OW            1 RES     
    3670 HW1         17.0620    17.9860    24.0080 HW1           1 RES     
    3671 HW2         17.7300    17.0930    22.8160 HW2           1 RES     
    3672 OW          10.2820     5.9100    15.9350 OW            1 RES     
    3673 HW1         11.0060     6.5950    16.0140 HW1           1 RES     
    3674 HW2          9.4040     6.3670    15.7940 HW2           1 RES     
    3675 OW          10.6040    25.4470    29.3330 OW            1 RES     
    3676 HW1         10.3590    26.3330    28.9390 HW1           1 RES     
    3677 HW2          9.7780    24.8940    29.4490 HW2           1 RES     
    3678 OW          18.0810     6.3240    19.4110 OW            1 RES     
    3679 HW1         18.0470     5.3280    19.3250 HW1           1 RES     
    3680 HW2         18.1700     6.5720    20.3760 HW2           1 RES     
    3681 OW           1.3220     4.7300    28.1390 OW            1 RES     
    3682 HW1          2.1650     4.1960    28.0880 HW1           1 RES     
    3683 HW2          0.5360     4.1120    28.1560 HW2           1 RES     
    3684 OW          30.9270    30.6400     8.0110 OW            1 RES     
    3685 HW1         31.1160    29.7540     7.5880 HW1           1 RES     
    3686 HW2         30.0090    30.6320     8.4080 HW2           1 RES     
    3687 OW           2.9010    37.6970     7.2050 OW            1 RES     
    3688 HW1          3.3040    36.8240     6.9330 HW1           1 RES     
    3689 HW2          1.9600    37.5500     7.5090 HW2           1 RES     
    3690 OW          19.7310    35.9490     7.5050 OW            1 RES     
    3691 HW1         20.1800    36.8410     7.5240 HW1           1 RES     
    3692 HW2         18.7390    36.0740     7.5390 HW2           1 RES     
    3693 OW           3.0530    25.3260     8.5150 OW            1 RES     
    3694 HW1          3.1990    26.2960     8.3230 HW1           1 RES     
    3695 HW2          2.1420    25.1970     8.9080 HW2           1 RES     
    3696 OW          35.2950     6.2880    21.4890 OW            1 RES     
    3697 HW1         36.1550     6.7930    21.4230 HW1           1 RES     
    3698 HW2         34.5530     6.8420    21.1110 HW2           1 RES     
    3699 OW          21.0500    30.6710     7.8880 OW            1 RES     
    3700 HW1         21.2840    31.6390     7.9790 HW1           1 RES     
    3701 HW2         21.0330    30.2450     8.7930 HW2           1 RES     
    3702 OW          27.0580    34.8340    14.5500 OW            1 RES     
    3703 HW1         27.3710    35.3410    15.3520 HW1           1 RES     
    3704 HW2         26.0630    34.7380    14.5830 HW2           1 RES     
    3705 OW           1.7440    20.8050    21.2740 OW            1 RES     
    3706 HW1          1.7850    21.7740    21.5140 HW1           1 RES     
    3707 HW2          2.6680    20.4640    21.1000 HW2           1 RES     
    3708 OW           6.8110    28.5520     7.6240 OW            1 RES     
    3709 HW1          5.9910    28.0380     7.8720 HW1           1 RES     
    3710 HW2          7.3450    28.0300     6.9590 HW2           1 RES     
    3711 OW          15.2060    33.8700    24.3550 OW            1 RES     
    3712 HW1         14.6890    33.2250    23.7930 HW1           1 RES     
    3713 HW2         15.0380    34.8020    24.0330 HW2           1 RES     
    3714 OW          11.4870    -1.4840    21.5590 OW            1 RES     
    3715 HW1         12.3120    -2.0480    21.5600 HW1           1 RES     
    3716 HW2         10.6970    -2.0480    21.3180 HW2           1 RES     
    3717 OW          22.0050    24.3990    21.9890 OW            1 RES     
    3718 HW1         21.5820    24.9990    21.3110 HW1           1 RES     
    3719 HW2         22.7910    23.9350    21.5810 HW2           1 RES     
    3720 OW           0.5280     0.2160    22.3000 OW            1 RES     
    3721 HW1         -0.3860     0.6150    22.2250 HW1           1 RES     
    3722 HW2          0.4800    -0.7660    22.1200 HW2           1 RES     
    3723 OW           3.8070     5.6270    13.6780 OW            1 RES     
    3724 HW1          3.0200     6.0020    14.1660 HW1           1 RES     
    3725 HW2          3.5910     5.5490    12.7040 HW2           1 RES     
    3726 OW          25.9750    36.6500    10.9540 OW            1 RES     
    3727 HW1         26.5760    36.1480    10.3330 HW1           1 RES     
    3728 HW2         26.4310    36.7690    11.8360 HW2           1 RES     
    3729 OW          20.0910    28.3530    13.9060 OW            1 RES     
    3730 HW1         19.6940    27.4390    13.9900 HW1           1 RES     
    3731 HW2         21.0860    28.2790    13.8350 HW2           1 RES     
    3732 OW          11.2810    31.0210    29.8860 OW            1 RES     
    3733 HW1         11.0320    30.1160    30.2290 HW1           1 RES     
    3734 HW2         12.1520    31.3030    30.2890 HW2           1 RES     
    3735 OW          19.3570    30.4640    18.2850 OW            1 RES     
    3736 HW1         20.2950    30.8090    18.2790 HW1           1 RES     
    3737 HW2         18.7190    31.2330    18.3340 HW2           1 RES     
    3738 OW           1.5320    34.1310    16.7710 OW            1 RES     
    3739 HW1          0.9900    33.3880    17.1620 HW1           1 RES     
    3740 HW2          2.4670    34.0850    17.1230 HW2           1 RES     
    3741 OW          29.8300     6.5140    25.9880 OW            1 RES     
    3742 HW1         30.2990     5.6320    26.0300 HW1           1 RES     
    3743 HW2         29.0940     6.4690    25.3120 HW2           1 RES     
    3744 OW          23.2610    16.1060     6.8670 OW            1 RES     
    3745 HW1         24.0480    15.4920     6.9040 HW1           1 RES     
    3746 HW2         22.5330    15.7520     7.4550 HW2           1 RES     
    3747 OW           9.1880    36.2610    16.4650 OW            1 RES     
    3748 HW1          8.6040    37.0230    16.1840 HW1           1 RES     
    3749 HW2          8.7880    35.8120    17.2640 HW2           1 RES     
    3750 OW          16.5420     3.2580     9.1780 OW            1 RES     
    3751 HW1         15.6070     2.9800     8.9600 HW1           1 RES     
    3752 HW2         17.1820     2.7810     8.5750 HW2           1 RES     
    3753 OW           8.9590    18.3230    11.0360 OW            1 RES     
    3754 HW1          9.4400    17.4550    11.1530 HW1           1 RES     
    3755 HW2          9.6230    19.0700    10.9910 HW2           1 RES     
    3756 OW          27.4120    15.7620    19.5540 OW            1 RES     
    3757 HW1         27.1360    15.8820    20.5070 HW1           1 RES     
    3758 HW2         26.6490    15.3810    19.0310 HW2           1 RES     
    3759 OW          29.4560    19.6180     8.6150 OW            1 RES     
    3760 HW1         30.0240    19.5930     7.7940 HW1           1 RES     
    3761 HW2         28.4940    19.6980     8.3530 HW2           1 RES     
    3762 OW          33.0410    12.5830    19.0080 OW            1 RES     
    3763 HW1         32.4160    11.8030    19.0090 HW1           1 RES     
    3764 HW2         33.9860    12.2550    19.0080 HW2           1 RES     
    3765 OW          34.1660    26.7770    10.1290 OW            1 RES     
    3766 HW1         33.9140    27.3430    10.9130 HW1           1 RES     
    3767 HW2         35.0500    27.0770     9.7700 HW2           1 RES     
    3768 OW          12.1510     6.3140    11.7620 OW            1 RES     
    3769 HW1         12.1610     5.4560    12.2730 HW1           1 RES     
    3770 HW2         11.2050     6.6010    11.6090 HW2           1 RES     
    3771 OW           6.2860     0.8410    27.3300 OW            1 RES     
    3772 HW1          6.8020     0.0690    27.6980 HW1           1 RES     
    3773 HW2          5.6230     0.5100    26.6580 HW2           1 RES     
    3774 OW          23.7790    24.8990    23.4110 OW            1 RES     
    3775 HW1         24.7710    24.7800    23.3970 HW1           1 RES     
    3776 HW2         23.3450    24.0490    23.7110 HW2           1 RES     
    3777 OW          24.0270     5.4140    16.5620 OW            1 RES     
    3778 HW1         23.0540     5.2180    16.4510 HW1           1 RES     
    3779 HW2         24.3680     4.9590    17.3850 HW2           1 RES     
    3780 OW          34.9790     1.1140    25.0040 OW            1 RES     
    3781 HW1         34.1540     1.3100    25.5330 HW1           1 RES     
    3782 HW2         35.3860     1.9720    24.6910 HW2           1 RES     
    3783 OW          29.4510    35.1330    24.5020 OW            1 RES     
    3784 HW1         30.0820    34.7310    23.8390 HW1           1 RES     
    3785 HW2         29.9730    35.5680    25.2370 HW2           1 RES     
    3786 OW          25.2520    11.2450    23.3990 OW            1 RES     
    3787 HW1         25.2750    11.4020    22.4130 HW1           1 RES     
    3788 HW2         24.3130    11.0490    23.6850 HW2           1 RES     
    3789 OW          26.3820    18.8150    29.2090 OW            1 RES     
    3790 HW1         27.3300    18.5030    29.2590 HW1           1 RES     
    3791 HW2         25.9450    18.4280    28.3960 HW2           1 RES     
    3792 OW          14.9100    37.9770     8.9750 OW            1 RES     
    3793 HW1         15.5980    37.3100     9.2610 HW1           1 RES     
    3794 HW2         14.0290    37.5180     8.8590 HW2           1 RES     
    3795 OW          34.3620     5.5650     9.1200 OW            1 RES     
    3796 HW1         34.5200     4.5810     9.1960 HW1           1 RES     
    3797 HW2         34.4060     5.8370     8.1580 HW2           1 RES     
    3798 OW          30.2890    15.4780    20.6140 OW            1 RES     
    3799 HW1         29.3290    15.7570    20.6330 HW1           1 RES     
    3800 HW2         30.3450    14.4820    20.5460 HW2           1 RES     
    3801 OW          27.0560    15.7980    11.9480 OW            1 RES     
    3802 HW1         27.7330    15.1390    11.6220 HW1           1 RES     
    3803 HW2         26.3050    15.8580    11.2900 HW2           1 RES     
    3804 OW          36.2950     5.0680    23.4480 OW            1 RES     
    3805 HW1         35.3200     5.2470    23.5710 HW1           1 RES     
    3806 HW2         36.7850     5.9350    23.3580 HW2           1 RES     
    3807 OW          16.7170     1.1340    23.4330 OW            1 RES     
    3808 HW1         16.1530     1.9080    23.7190 HW1           1 RES     
    3809 HW2         17.4640     1.4620    22.8540 HW2           1 RES     
    3810 OW           8.8440    10.1980     8.7930 OW            1 RES     
    3811 HW1          8.5530    11.1540     8.8300 HW1           1 RES     
    3812 HW2          9.8420    10.1520     8.8290 HW2           1 RES     
    3813 OW          14.9430    36.9390    13.9460 OW            1 RES     
    3814 HW1         15.5990    36.5890    14.6140 HW1           1 RES     
    3815 HW2         15.1240    37.9080    13.7760 HW2           1 RES     
    3816 OW          22.4400     2.6560     8.5720 OW            1 RES     
    3817 HW1         23.1660     2.3290     9.1760 HW1           1 RES     
    3818 HW2         22.0860     3.5260     8.9160 HW2           1 RES     
    3819 OW          26.7060    27.0990    21.2710 OW            1 RES     
    3820 HW1         26.7360    27.9380    20.7290 HW1           1 RES     
    3821 HW2         27.2160    27.2320    22.1210 HW2           1 RES     
    3822 OW          20.2370    35.0740    29.6400 OW            1 RES     
    3823 HW1         20.2580    34.0760    29.6740 HW1           1 RES     
    3824 HW2         19.2910    35.3910    29.7180 HW2           1 RES     
    3825 OW          -0.2530    15.9220     7.5120 OW            1 RES     
    3826 HW1         -0.6500    16.7780     7.8410 HW1           1 RES     
    3827 HW2         -0.9840    15.3080     7.2120 HW2           1 RES     
    3828 OW          28.0610    25.7500    19.0060 OW            1 RES     
    3829 HW1         27.5920    24.9360    18.6640 HW1           1 RES     
    3830 HW2         27.4320    26.5270    18.9940 HW2           1 RES     
    3831 OW          39.1880    14.6160    11.4520 OW            1 RES     
    3832 HW1         38.7380    15.1240    12.1860 HW1           1 RES     
    3833 HW2         38.6030    13.8570    11.1650 HW2           1 RES     
    3834 OW          33.9290    19.3870     9.0080 OW            1 RES     
    3835 HW1         33.3730    20.0860     9.4550 HW1           1 RES     
    3836 HW2         34.7570    19.8060     8.6350 HW2           1 RES     
    3837 OW          12.4380    26.8170    16.8450 OW            1 RES     
    3838 HW1         12.8100    27.7360    16.9700 HW1           1 RES     
    3839 HW2         13.1420    26.1400    17.0590 HW2           1 RES     
    3840 OW          31.6560    33.8170     9.0280 OW            1 RES     
    3841 HW1         31.2030    34.6260     8.6550 HW1           1 RES     
    3842 HW2         30.9800    33.0970     9.1810 HW2           1 RES     
    3843 OW          22.3450    11.3050     9.9710 OW            1 RES     
    3844 HW1         21.3760    11.1890     9.7580 HW1           1 RES     
    3845 HW2         22.4420    11.8760    10.7870 HW2           1 RES     
    3846 OW          12.7150    -0.8950    16.3760 OW            1 RES     
    3847 HW1         12.3670    -1.7240    16.8130 HW1           1 RES     
    3848 HW2         12.3900    -0.0930    16.8770 HW2           1 RES     
    3849 OW          18.5710    24.8490    15.3350 OW            1 RES     
    3850 HW1         19.5090    24.8080    15.6790 HW1           1 RES     
    3851 HW2         18.4390    25.7030    14.8300 HW2           1 RES     
    3852 OW           6.7670    -0.8930    18.3740 OW            1 RES     
    3853 HW1          6.5190    -1.7110    17.8580 HW1           1 RES     
    3854 HW2          7.1120    -1.1580    19.2750 HW2           1 RES     
    3855 OW          27.8290    24.6870    22.7960 OW            1 RES     
    3856 HW1         28.2040    24.0620    23.4790 HW1           1 RES     
    3857 HW2         26.9430    25.0310    23.1100 HW2           1 RES     
    3858 OW          37.3050    28.5010    24.7670 OW            1 RES     
    3859 HW1         37.8660    28.2180    23.9900 HW1           1 RES     
    3860 HW2         37.6850    28.1200    25.6100 HW2           1 RES     
    3861 OW          33.0780    17.8200    26.2550 OW            1 RES     
    3862 HW1         32.1030    18.0250    26.3380 HW1           1 RES     
    3863 HW2         33.6110    18.5820    26.6250 HW2           1 RES     
    3864 OW          23.2700     6.6730    20.2460 OW            1 RES     
    3865 HW1         23.4120     5.7150    20.4930 HW1           1 RES     
    3866 HW2         24.0280     6.9860    19.6740 HW2           1 RES     
    3867 OW          23.5280     7.9490    17.7520 OW            1 RES     
    3868 HW1         24.4810     7.8170    17.4840 HW1           1 RES     
    3869 HW2         23.0430     7.0760    17.7010 HW2           1 RES     
    3870 OW          13.6340     4.7430    28.1510 OW            1 RES     
    3871 HW1         14.5090     5.2240    28.1340 HW1           1 RES     
    3872 HW2         13.7960     3.7550    28.1470 HW2           1 RES     
    3873 OW          29.1130    22.0140    19.4020 OW            1 RES     
    3874 HW1         29.1810    21.1700    19.9340 HW1           1 RES     
    3875 HW2         28.4470    21.8910    18.6660 HW2           1 RES     
    3876 OW           8.2560     8.6480    22.1830 OW            1 RES     
    3877 HW1          8.5680     8.9830    23.0720 HW1           1 RES     
    3878 HW2          8.1070     7.6600    22.2330 HW2           1 RES     
    3879 OW           7.8620    36.2530    11.4580 OW            1 RES     
    3880 HW1          6.8790    36.3150    11.6310 HW1           1 RES     
    3881 HW2          8.1090    35.3000    11.2780 HW2           1 RES     
    3882 OW          20.4100    13.2300    20.4280 OW            1 RES     
    3883 HW1         19.7990    13.9600    20.1220 HW1           1 RES     
    3884 HW2         19.9910    12.3420    20.2380 HW2           1 RES     
    3885 OW          29.6360    15.0400    15.2730 OW            1 RES     
    3886 HW1         28.7780    14.8690    15.7560 HW1           1 RES     
    3887 HW2         30.0000    14.1770    14.9230 HW2           1 RES     
    3888 OW          13.1760    27.0060     9.6400 OW            1 RES     
    3889 HW1         12.6280    27.4980     8.9650 HW1           1 RES     
    3890 HW2         14.0860    26.8270     9.2660 HW2           1 RES     
    3891 OW           6.4860    22.4250    26.4690 OW            1 RES     
    3892 HW1          6.0410    21.6690    25.9910 HW1           1 RES     
    3893 HW2          5.8690    22.7880    27.1680 HW2           1 RES     
    3894 OW          31.4970     0.9070    24.0780 OW            1 RES     
    3895 HW1         31.9060     1.5080    23.3920 HW1           1 RES     
    3896 HW2         32.2210     0.4460    24.5920 HW2           1 RES     
    3897 OW          30.7470     1.2020    28.5770 OW            1 RES     
    3898 HW1         31.6150     1.6810    28.4530 HW1           1 RES     
    3899 HW2         29.9930     1.8570    28.5240 HW2           1 RES     
    3900 OW          27.0660    13.6820    20.5160 OW            1 RES     
    3901 HW1         26.8520    13.8810    21.4720 HW1           1 RES     
    3902 HW2         27.1650    12.6940    20.3950 HW2           1 RES     
    3903 OW          11.7970    34.8010    29.8390 OW            1 RES     
    3904 HW1         12.0140    35.1950    28.9470 HW1           1 RES     
    3905 HW2         12.6390    34.4920    30.2820 HW2           1 RES     
    3906 OW           9.9290    21.0460    22.2290 OW            1 RES     
    3907 HW1          9.7770    21.6590    21.4550 HW1           1 RES     
    3908 HW2          9.0720    20.5890    22.4670 HW2           1 RES     
    3909 OW          32.0690    30.6860    17.6810 OW            1 RES     
    3910 HW1         32.7340    31.1350    17.0850 HW1           1 RES     
    3911 HW2         32.1850    29.6940    17.6230 HW2           1 RES     
    3912 OW           8.9160     7.9340    19.8290 OW            1 RES     
    3913 HW1          8.9920     8.8920    20.1020 HW1           1 RES     
    3914 HW2          7.9890     7.6060    20.0150 HW2           1 RES     
    3915 OW           0.5910     1.4740     7.7270 OW            1 RES     
    3916 HW1          0.5560     1.2560     8.7020 HW1           1 RES     
    3917 HW2          1.5320     1.6860     7.4660 HW2           1 RES     
    3918 OW           1.8190    35.9840    20.7290 OW            1 RES     
    3919 HW1          1.2110    35.1920    20.6800 HW1           1 RES     
    3920 HW2          1.2960    36.8170    20.5500 HW2           1 RES     
    3921 OW           4.1020    14.5080    11.2340 OW            1 RES     
    3922 HW1          5.0920    14.6390    11.1930 HW1           1 RES     
    3923 HW2          3.6440    15.2800    10.7940 HW2           1 RES     
    3924 OW          27.8390     4.7030    22.0130 OW            1 RES     
    3925 HW1         28.3990     4.8430    21.1970 HW1           1 RES     
    3926 HW2         27.9160     5.5010    22.6120 HW2           1 RES     
    3927 OW          26.9150    16.9200    22.4340 OW            1 RES     
    3928 HW1         25.9690    16.9360    22.1140 HW1           1 RES     
    3929 HW2         27.0890    17.7220    23.0060 HW2           1 RES     
    3930 OW          21.3570    14.4880    10.9050 OW            1 RES     
    3931 HW1         20.9500    13.5780    10.9740 HW1           1 RES     
    3932 HW2         22.3380    14.4310    11.0910 HW2           1 RES     
    3933 OW          36.0610    16.7630    16.3700 OW            1 RES     
    3934 HW1         36.5260    15.8910    16.5150 HW1           1 RES     
    3935 HW2         36.5780    17.3120    15.7120 HW2           1 RES     
    3936 OW          14.8660     4.1420    14.1640 OW            1 RES     
    3937 HW1         14.8560     3.5780    14.9890 HW1           1 RES     
    3938 HW2         13.9280     4.3710    13.9040 HW2           1 RES     
    3939 OW          29.2090    11.2100    15.2330 OW            1 RES     
    3940 HW1         29.8520    11.8630    14.8340 HW1           1 RES     
    3941 HW2         28.3060    11.6340    15.3060 HW2           1 RES     
    3942 OW          31.8190    17.7210     9.7090 OW            1 RES     
    3943 HW1         32.8090    17.6010     9.6370 HW1           1 RES     
    3944 HW2         31.5840    18.6730     9.5140 HW2           1 RES     
    3945 OW          38.3130     4.5000    15.7820 OW            1 RES     
    3946 HW1         39.1880     4.2920    16.2180 HW1           1 RES     
    3947 HW2         37.8720     5.2580    16.2640 HW2           1 RES     
    3948 OW           7.7210     2.6330    26.0880 OW            1 RES     
    3949 HW1          8.1380     3.4740    26.4290 HW1           1 RES     
    3950 HW2          6.7430     2.7800    25.9410 HW2           1 RES     
    3951 OW          18.3920    32.5360     9.8750 OW            1 RES     
    3952 HW1         17.6250    33.1510     9.6960 HW1           1 RES     
    3953 HW2         18.3000    31.7140     9.3130 HW2           1 RES     
    3954 OW           8.2640    12.0480    29.6570 OW            1 RES     
    3955 HW1          7.5370    11.3830    29.8250 HW1           1 RES     
    3956 HW2          8.8820    12.0730    30.4430 HW2           1 RES     
    3957 OW          14.6440    36.4870    30.3380 OW            1 RES     
    3958 HW1         13.7290    36.8570    30.1820 HW1           1 RES     
    3959 HW2         14.5900    35.4940    30.4420 HW2           1 RES     
    3960 OW          37.6570     7.1950    29.0830 OW            1 RES     
    3961 HW1         37.8930     6.2240    29.0970 HW1           1 RES     
    3962 HW2         36.6650     7.2990    29.1610 HW2           1 RES     
    3963 OW           5.8820    19.6970     8.6320 OW            1 RES     
    3964 HW1          6.7630    19.2260     8.6590 HW1           1 RES     
    3965 HW2          6.0310    20.6850     8.6410 HW2           1 RES     
    3966 OW          34.0990    18.2790    18.1870 OW            1 RES     
    3967 HW1         33.3340    18.9210    18.1840 HW1           1 RES     
    3968 HW2         34.9610    18.7870    18.2010 HW2           1 RES     
    3969 OW          17.9920    -0.2070    15.5370 OW            1 RES     
    3970 HW1         17.5650     0.6960    15.5890 HW1           1 RES     
    3971 HW2         18.0100    -0.6200    16.4480 HW2           1 RES     
    3972 OW          37.7200     9.4910    28.9920 OW            1 RES     
    3973 HW1         37.0670     9.3890    29.7420 HW1           1 RES     
    3974 HW2         38.0680    10.4290    28.9780 HW2           1 RES     
    3975 OW           4.0420     8.8770    10.2850 OW            1 RES     
    3976 HW1          3.0590     8.9770    10.4370 HW1           1 RES     
    3977 HW2          4.4040     9.7140     9.8760 HW2           1 RES     
    3978 OW           2.7040     8.0220    19.6180 OW            1 RES     
    3979 HW1          1.7280     7.8520    19.4820 HW1           1 RES     
    3980 HW2          3.1880     7.8990    18.7520 HW2           1 RES     
    3981 OW          38.1510    -1.4580    13.9670 OW            1 RES     
    3982 HW1         37.4350    -1.1180    13.3570 HW1           1 RES     
    3983 HW2         39.0440    -1.1470    13.6400 HW2           1 RES     
    3984 OW          21.8030    18.6600    25.7270 OW            1 RES     
    3985 HW1         21.1610    18.5380    24.9710 HW1           1 RES     
    3986 HW2         22.3710    17.8420    25.8190 HW2           1 RES     
    3987 OW           5.0790     4.1240     7.3420 OW            1 RES     
    3988 HW1          5.5930     3.2800     7.4940 HW1           1 RES     
    3989 HW2          5.7120     4.8660     7.1240 HW2           1 RES     
    3990 OW           1.7720     0.4920    15.2950 OW            1 RES     
    3991 HW1          1.7320     1.4440    15.5960 HW1           1 RES     
    3992 HW2          0.9090     0.2450    14.8540 HW2           1 RES     
    3993 OW           1.9190    27.9160    16.3200 OW            1 RES     
    3994 HW1          1.8370    28.1410    15.3500 HW1           1 RES     
    3995 HW2          1.4840    27.0330    16.4960 HW2           1 RES     
    3996 OW           4.5470     8.3650    14.0870 OW            1 RES     
    3997 HW1          4.2520     8.6970    14.9830 HW1           1 RES     
    3998 HW2          3.7610     7.9930    13.5930 HW2           1 RES     
    3999 OW          28.4910    17.7420     9.9570 OW            1 RES     
    4000 HW1         27.7040    17.1720    10.1880 HW1           1 RES     
    4001 HW2         29.3230    17.1880     9.9790 HW2           1 RES     
    4002 OW          10.7360     7.7770    22.7110 OW            1 RES     
    4003 HW1         10.4830     8.5120    22.0820 HW1           1 RES     
    4004 HW2         10.6240     8.0910    23.6540 HW2           1 RES     
    4005 OW           7.5450    16.0100    25.5100 OW            1 RES     
    4006 HW1          8.3040    15.8660    24.8760 HW1           1 RES     
    4007 HW2          6.9680    15.1930    25.5290 HW2           1 RES     
    4008 OW          26.1010     2.9230    12.4540 OW            1 RES     
    4009 HW1         26.1320     2.5320    13.3730 HW1           1 RES     
    4010 HW2         26.4040     3.8760    12.4860 HW2           1 RES     
    4011 OW          -0.6210    31.7370    15.8460 OW            1 RES     
    4012 HW1          0.3760    31.7500    15.7800 HW1           1 RES     
    4013 HW2         -1.0050    31.3130    15.0250 HW2           1 RES     
    4014 OW          18.9850     0.3480    19.0450 OW            1 RES     
    4015 HW1         18.9130     0.5620    18.0710 HW1           1 RES     
    4016 HW2         18.5830    -0.5510    19.2200 HW2           1 RES     
    4017 OW          11.2540    15.5640    11.0160 OW            1 RES     
    4018 HW1         11.4400    16.5380    10.8910 HW1           1 RES     
    4019 HW2         10.2660    15.4100    11.0210 HW2           1 RES     
    4020 OW          23.6210    29.1760    28.2890 OW            1 RES     
    4021 HW1         23.4350    28.3440    27.7660 HW1           1 RES     
    4022 HW2         22.9390    29.8720    28.0640 HW2           1 RES     
    4023 OW          30.3600    12.9880    29.6020 OW            1 RES     
    4024 HW1         30.7480    13.6300    28.9420 HW1           1 RES     
    4025 HW2         31.0850    12.6440    30.2000 HW2           1 RES     
    4026 OW          18.9550    13.4830    16.1600 OW            1 RES     
    4027 HW1         18.1360    12.9490    15.9570 HW1           1 RES     
    4028 HW2         18.7070    14.4460    16.2710 HW2           1 RES     
    4029 OW          18.9040    34.0040    15.3560 OW            1 RES     
    4030 HW1         19.4700    33.9760    14.5330 HW1           1 RES     
    4031 HW2         18.3490    34.8360    15.3520 HW2           1 RES     
    4032 OW          16.1790     3.4020    28.6250 OW            1 RES     
    4033 HW1         16.8440     4.0230    28.2130 HW1           1 RES     
    4034 HW2         16.3230     2.4760    28.2730 HW2           1 RES     
    4035 OW          10.4380     0.4190    24.7690 OW            1 RES     
    4036 HW1         10.6140    -0.2670    24.0640 HW1           1 RES     
    4037 HW2         10.6570     1.3280    24.4130 HW2           1 RES     
    4038 OW          28.6970    24.6980     6.9280 OW            1 RES     
    4039 HW1         28.5700    25.6870     6.8680 HW1           1 RES     
    4040 HW2         29.6720    24.4910     7.0090 HW2           1 RES     
    4041 OW           4.5390    30.1970     8.7960 OW            1 RES     
    4042 HW1          5.1620    29.5520     9.2360 HW1           1 RES     
    4043 HW2          4.4650    29.9790     7.8220 HW2           1 RES     
    4044 OW          -1.0050    28.0960    11.0220 OW            1 RES     
    4045 HW1         -0.9100    27.3810    10.3300 HW1           1 RES     
    4046 HW2         -0.5910    28.9430    10.6850 HW2           1 RES     
    4047 OW           6.8190    32.8090     7.2870 OW            1 RES     
    4048 HW1          6.2910    31.9650     7.1990 HW1           1 RES     
    4049 HW2          7.3170    32.8020     8.1550 HW2           1 RES     
    4050 OW           7.8420    22.1840    15.2780 OW            1 RES     
    4051 HW1          6.8880    21.9290    15.4350 HW1           1 RES     
    4052 HW2          8.4360    21.6320    15.8620 HW2           1 RES     
    4053 OW          27.5530    29.6840     8.2930 OW            1 RES     
    4054 HW1         27.9230    30.3080     7.6060 HW1           1 RES     
    4055 HW2         26.5830    29.8830     8.4380 HW2           1 RES     
    4056 OW          36.4670    29.2610    12.6340 OW            1 RES     
    4057 HW1         35.9650    29.0750    13.4780 HW1           1 RES     
    4058 HW2         36.1350    30.1130    12.2290 HW2           1 RES     
    4059 OW          11.3930    34.2940    18.1900 OW            1 RES     
    4060 HW1         11.7490    34.8480    17.4380 HW1           1 RES     
    4061 HW2         10.4180    34.4820    18.3110 HW2           1 RES     
    4062 OW          30.9590     1.8160    18.2420 OW            1 RES     
    4063 HW1         31.0780     1.4800    19.1760 HW1           1 RES     
    4064 HW2         31.7390     2.3900    17.9920 HW2           1 RES     
    4065 OW           9.4160    23.8420    25.9550 OW            1 RES     
    4066 HW1          9.8210    24.7200    25.7020 HW1           1 RES     
    4067 HW2          8.7650    23.5590    25.2500 HW2           1 RES     
    4068 OW          28.2750    12.5380    22.9880 OW            1 RES     
    4069 HW1         28.6210    12.6150    22.0540 HW1           1 RES     
    4070 HW2         27.4970    11.9090    23.0060 HW2           1 RES     
    4071 OW          28.5780    38.0050    21.6410 OW            1 RES     
    4072 HW1         27.5860    38.1040    21.7170 HW1           1 RES     
    4073 HW2         28.8130    37.0350    21.5800 HW2           1 RES     
    4074 OW          24.3280    20.4970    27.2430 OW            1 RES     
    4075 HW1         24.3960    19.5000    27.2510 HW1           1 RES     
    4076 HW2         25.2460    20.8940    27.2710 HW2           1 RES     
    4077 OW          22.8610     7.3730    12.7060 OW            1 RES     
    4078 HW1         23.1310     6.7280    11.9920 HW1           1 RES     
    4079 HW2         23.6770     7.7140    13.1740 HW2           1 RES     
    4080 OW          12.2790    12.9210    27.9110 OW            1 RES     
    4081 HW1         11.3960    12.5000    27.7090 HW1           1 RES     
    4082 HW2         12.1650    13.9100    28.0030 HW2           1 RES     
    4083 OW          33.6620    33.7070    13.9010 OW            1 RES     
    4084 HW1         33.9980    33.8180    14.8350 HW1           1 RES     
    4085 HW2         33.0230    32.9380    13.8640 HW2           1 RES     
    4086 OW          12.7750    32.8440    28.0150 OW            1 RES     
    4087 HW1         11.8460    32.6920    28.3520 HW1           1 RES     
    4088 HW2         13.3550    32.0710    28.2740 HW2           1 RES     
    4089 OW           9.9300    33.2000    27.3630 OW            1 RES     
    4090 HW1          9.4670    33.7080    28.0890 HW1           1 RES     
    4091 HW2          9.3430    33.1640    26.5540 HW2           1 RES     
    4092 OW          28.7970    21.7970     8.9390 OW            1 RES     
    4093 HW1         28.1330    22.5390     8.8600 HW1           1 RES     
    4094 HW2         29.7230    22.1690     8.8750 HW2           1 RES     
    4095 OW           6.7050    36.6180    18.1260 OW            1 RES     
    4096 HW1          6.4890    36.1720    17.2580 HW1           1 RES     
    4097 HW2          6.2420    37.5040    18.1700 HW2           1 RES     
    4098 OW           4.3380    36.3020    17.9480 OW            1 RES     
    4099 HW1          4.7060    36.0060    18.8280 HW1           1 RES     
    4100 HW2          4.1300    35.5010    17.3860 HW2           1 RES     
    4101 OW          25.3400     0.3100    24.4090 OW            1 RES     
    4102 HW1         24.7320    -0.4020    24.0590 HW1           1 RES     
    4103 HW2         25.4570     1.0200    23.7140 HW2           1 RES     
    4104 OW          14.4170    37.1930    25.7550 OW            1 RES     
    4105 HW1         13.4340    37.0430    25.8570 HW1           1 RES     
    4106 HW2         14.8770    36.3150    25.6220 HW2           1 RES     
    4107 OW          16.6130    19.9760    29.2640 OW            1 RES     
    4108 HW1         16.9370    19.4940    28.4510 HW1           1 RES     
    4109 HW2         15.9990    19.3800    29.7830 HW2           1 RES     
    4110 OW          24.3080    15.7210    17.6890 OW            1 RES     
    4111 HW1         24.0030    15.9700    16.7710 HW1           1 RES     
    4112 HW2         24.9980    14.9990    17.6280 HW2           1 RES     
    4113 OW          19.3470    -0.6440    21.5260 OW            1 RES     
    4114 HW1         20.1430    -0.0510    21.6420 HW1           1 RES     
    4115 HW2         18.5590    -0.2410    21.9930 HW2           1 RES     
    4116 OW          12.3040    -1.4280    25.1130 OW            1 RES     
    4117 HW1         12.3180    -2.0480    24.3290 HW1           1 RES     
    4118 HW2         12.5240    -1.9380    25.9450 HW2           1 RES     
    4119 OW           3.8170    32.5150    12.0480 OW            1 RES     
    4120 HW1          4.1520    33.0280    12.8370 HW1           1 RES     
    4121 HW2          3.3000    33.1250    11.4480 HW2           1 RES     
    4122 OW          32.8220     9.1730    19.2170 OW            1 RES     
    4123 HW1         32.3390     9.4830    18.4000 HW1           1 RES     
    4124 HW2         32.5320     8.2430    19.4440 HW2           1 RES     
    4125 OW          14.2230    35.8220    21.9550 OW            1 RES     
    4126 HW1         13.7930    36.4990    22.5510 HW1           1 RES     
    4127 HW2         13.7450    34.9480    22.0430 HW2           1 RES     
    4128 OW          35.3600    22.3190     7.1440 OW            1 RES     
    4129 HW1         34.8440    23.1290     6.8670 HW1           1 RES     
    4130 HW2         34.7290    21.5610     7.3080 HW2           1 RES     
    4131 OW           2.8330     4.8300    18.8450 OW            1 RES     
    4132 HW1          3.4110     4.1830    18.3490 HW1           1 RES     
    4133 HW2          1.8940     4.4880    18.8700 HW2           1 RES     
    4134 OW          21.9340    24.5590    15.7380 OW            1 RES     
    4135 HW1         21.8720    24.0140    16.5730 HW1           1 RES     
    4136 HW2         21.9420    23.9520    14.9430 HW2           1 RES     
    4137 OW          37.5570    -1.8930    21.7470 OW            1 RES     
    4138 HW1         36.9890    -1.4490    22.4390 HW1           1 RES     
    4139 HW2         38.2500    -1.2500    21.4200 HW2           1 RES     
    4140 OW           2.5460    12.1070    21.9250 OW            1 RES     
    4141 HW1          3.1580    12.8070    22.2910 HW1           1 RES     
    4142 HW2          2.3720    11.4160    22.6260 HW2           1 RES     
    4143 OW          24.0460    30.7180    18.9400 OW            1 RES     
    4144 HW1         24.2140    29.7330    18.9260 HW1           1 RES     
    4145 HW2         23.2850    30.9190    19.5580 HW2           1 RES     
    4146 OW          28.3820     7.0410    21.0960 OW            1 RES     
    4147 HW1         28.6980     7.9680    20.9000 HW1           1 RES     
    4148 HW2         27.3820     7.0260    21.1180 HW2           1 RES     
    4149 OW          33.9720    36.3840    29.0350 OW            1 RES     
    4150 HW1         33.0570    36.5920    28.6930 HW1           1 RES     
    4151 HW2         34.3830    35.6660    28.4730 HW2           1 RES     
    4152 OW          13.6210    27.2650    14.6610 OW            1 RES     
    4153 HW1         12.6560    27.0040    14.6640 HW1           1 RES     
    4154 HW2         14.1890    26.4480    14.7600 HW2           1 RES     
    4155 OW          38.2740    20.5360    29.4120 OW            1 RES     
    4156 HW1         39.1880    20.8410    29.1450 HW1           1 RES     
    4157 HW2         37.8060    21.2720    29.9000 HW2           1 RES     
    4158 OW          15.6660    12.2880     9.6710 OW            1 RES     
    4159 HW1         16.1540    11.8110    10.4000 HW1           1 RES     
    4160 HW2         15.9720    13.2400     9.6310 HW2           1 RES     
    4161 OW          23.3540    21.2590     7.1670 OW            1 RES     
    4162 HW1         23.0780    22.1830     6.9060 HW1           1 RES     
    4163 HW2         24.2940    21.0940     6.8670 HW2           1 RES     
    4164 OW          29.5920    32.9400     7.4770 OW            1 RES     
    4165 HW1         29.1620    33.7150     7.0160 HW1           1 RES     
    4166 HW2         29.5910    32.1460     6.8680 HW2           1 RES     
    4167 OW           9.0870    22.2710    27.4600 OW            1 RES     
    4168 HW1          8.4990    22.8910    27.9770 HW1           1 RES     
    4169 HW2          9.7330    21.8280    28.0820 HW2           1 RES     
    4170 OW           2.7830     0.3080    28.0760 OW            1 RES     
    4171 HW1          3.4480     0.9930    27.7790 HW1           1 RES     
    4172 HW2          2.1470     0.7200    28.7270 HW2           1 RES     
    4173 OW          34.1320    22.7120    17.5390 OW            1 RES     
    4174 HW1         33.5780    23.3450    18.0780 HW1           1 RES     
    4175 HW2         33.6770    21.8220    17.4960 HW2           1 RES     
    4176 OW          32.1760    26.0150    18.5130 OW            1 RES     
    4177 HW1         32.7140    25.3820    17.9570 HW1           1 RES     
    4178 HW2         31.2070    25.7750    18.4480 HW2           1 RES     
    4179 OW          24.2320     9.1930    10.9590 OW            1 RES     
    4180 HW1         24.2270    10.0380    10.4250 HW1           1 RES     
    4181 HW2         23.3050     8.9920    11.2750 HW2           1 RES     
    4182 OW           6.1970     2.9200     9.8770 OW            1 RES     
    4183 HW1          6.1070     1.9240     9.8780 HW1           1 RES     
    4184 HW2          5.2890     3.3380     9.8790 HW2           1 RES     
    4185 OW           7.9000    31.5680    21.2800 OW            1 RES     
    4186 HW1          8.6960    32.1280    21.5060 HW1           1 RES     
    4187 HW2          7.2580    32.1050    20.7330 HW2           1 RES     
    4188 OW          28.4290    15.8150    28.2530 OW            1 RES     
    4189 HW1         29.2420    16.0310    28.7920 HW1           1 RES     
    4190 HW2         27.7960    16.5890    28.2790 HW2           1 RES     
    4191 OW          27.6630    33.4590    26.3160 OW            1 RES     
    4192 HW1         28.6570    33.3950    26.2400 HW1           1 RES     
    4193 HW2         27.2710    32.5410    26.3690 HW2           1 RES     
    4194 OW           0.2540    27.7460     8.5000 OW            1 RES     
    4195 HW1          0.8280    27.0980     9.0000 HW1           1 RES     
    4196 HW2         -0.0410    27.3340     7.6370 HW2           1 RES     
    4197 OW          26.1680    12.6560    28.7750 OW            1 RES     
    4198 HW1         26.9600    13.2640    28.8210 HW1           1 RES     
    4199 HW2         25.7690    12.6960    27.8590 HW2           1 RES     
    4200 OW          37.4610    21.1780    24.7090 OW            1 RES     
    4201 HW1         37.0650    20.3360    25.0730 HW1           1 RES     
    4202 HW2         37.8690    20.9960    23.8140 HW2           1 RES     
    4203 OW          27.2430    10.8360    24.9090 OW            1 RES     
    4204 HW1         26.5650    11.1760    25.5610 HW1           1 RES     
    4205 HW2         28.0580    10.5330    25.4030 HW2           1 RES     
    4206 OW           8.7250    18.2420    27.1820 OW            1 RES     
    4207 HW1          9.5770    17.7200    27.2180 HW1           1 RES     
    4208 HW2          8.8300    19.0070    26.5470 HW2           1 RES     
    4209 OW           8.8180    27.9380    28.1630 OW            1 RES     
    4210 HW1          9.0320    27.7970    27.1970 HW1           1 RES     
    4211 HW2          9.1840    28.8200    28.4610 HW2           1 RES     
    4212 OW          12.4690    33.1510    16.1340 OW            1 RES     
    4213 HW1         13.0420    33.1350    16.9530 HW1           1 RES     
    4214 HW2         13.0490    33.2210    15.3230 HW2           1 RES     
    4215 OW          10.4130    22.3370    17.9700 OW            1 RES     
    4216 HW1         11.2970    21.8700    17.9370 HW1           1 RES     
    4217 HW2         10.5510    23.2960    18.2150 HW2           1 RES     
    4218 OW          24.5360     3.4180    14.6020 OW            1 RES     
    4219 HW1         24.5640     2.8710    15.4380 HW1           1 RES     
    4220 HW2         24.8220     4.3540    14.8060 HW2           1 RES     
    4221 OW          26.8410    -1.5550    10.0520 OW            1 RES     
    4222 HW1         26.5540    -0.6030    10.1550 HW1           1 RES     
    4223 HW2         26.3030    -1.9900     9.3300 HW2           1 RES     
    4224 OW          28.3520    26.0020    24.5170 OW            1 RES     
    4225 HW1         29.0670    26.6700    24.3140 HW1           1 RES     
    4226 HW2         28.6860    25.3530    25.2010 HW2           1 RES     
    4227 OW          22.8100     5.4110    14.1250 OW            1 RES     
    4228 HW1         21.8490     5.6490    13.9910 HW1           1 RES     
    4229 HW2         23.0490     4.6400    13.5350 HW2           1 RES     
    4230 OW           2.5370    14.5730    23.4460 OW            1 RES     
    4231 HW1          1.5650    14.6260    23.2190 HW1           1 RES     
    4232 HW2          2.8640    15.4760    23.7260 HW2           1 RES     
    4233 OW          16.9280    37.1410    12.7100 OW            1 RES     
    4234 HW1         17.4050    37.9650    13.0140 HW1           1 RES     
    4235 HW2         16.3990    37.3460    11.8870 HW2           1 RES     
    4236 OW           1.9390    31.4110    21.5340 OW            1 RES     
    4237 HW1          2.1150    30.6120    22.1090 HW1           1 RES     
    4238 HW2          1.0450    31.3160    21.0950 HW2           1 RES     
    4239 OW          30.2500    29.4810    14.8200 OW            1 RES     
    4240 HW1         30.7270    29.9980    14.1090 HW1           1 RES     
    4241 HW2         29.2770    29.7100    14.8030 HW2           1 RES     
    4242 OW          13.9030    10.9640    24.0380 OW            1 RES     
    4243 HW1         12.9540    10.7460    24.2610 HW1           1 RES     
    4244 HW2         14.0930    11.9150    24.2840 HW2           1 RES     
    4245 OW          12.1190    12.6760    24.9060 OW            1 RES     
    4246 HW1         12.3670    13.2810    24.1500 HW1           1 RES     
    4247 HW2         11.4700    13.1420    25.5070 HW2           1 RES     
    4248 OW           6.0660    31.9030    17.6160 OW            1 RES     
    4249 HW1          5.9640    30.9150    17.7240 HW1           1 RES     
    4250 HW2          5.1730    32.3140    17.4340 HW2           1 RES     
    4251 OW          23.8240    10.0540    20.6320 OW            1 RES     
    4252 HW1         23.4760    10.2310    21.5520 HW1           1 RES     
    4253 HW2         24.6030    10.6540    20.4490 HW2           1 RES     
    4254 OW          -0.9160    24.3030    16.8150 OW            1 RES     
    4255 HW1         -0.8100    24.5460    17.7780 HW1           1 RES     
    4256 HW2         -1.0040    23.3100    16.7280 HW2           1 RES     
    4257 OW          11.4830     2.2810     8.0700 OW            1 RES     
    4258 HW1         10.7330     2.0290     7.4590 HW1           1 RES     
    4259 HW2         12.2190     2.7000     7.5400 HW2           1 RES     
    4260 OW          10.8450    36.8950    29.7110 OW            1 RES     
    4261 HW1         10.0840    36.3010    29.9720 HW1           1 RES     
    4262 HW2         11.5290    36.9010    30.4410 HW2           1 RES     
    4263 OW           4.7690    30.7140    27.2100 OW            1 RES     
    4264 HW1          5.2940    31.5180    27.4890 HW1           1 RES     
    4265 HW2          3.7930    30.8970    27.3260 HW2           1 RES     
    4266 OW          15.5980    18.8910     9.0570 OW            1 RES     
    4267 HW1         14.9750    19.4500     9.6030 HW1           1 RES     
    4268 HW2         15.2000    17.9830     8.9210 HW2           1 RES     
    4269 OW           0.3570    27.1930    30.1880 OW            1 RES     
    4270 HW1          0.3350    26.2260    30.4410 HW1           1 RES     
    4271 HW2         -0.4200    27.4000    29.5940 HW2           1 RES     
    4272 OW           2.2210    25.1890    19.1800 OW            1 RES     
    4273 HW1          2.9490    24.8970    18.5600 HW1           1 RES     
    4274 HW2          1.5000    25.6450    18.6590 HW2           1 RES     
    4275 OW          29.5390    24.8530    13.5660 OW            1 RES     
    4276 HW1         30.1800    24.7090    14.3190 HW1           1 RES     
    4277 HW2         29.3810    25.8340    13.4450 HW2           1 RES     
    4278 OW          23.0800     6.1720     6.8790 OW            1 RES     
    4279 HW1         22.5150     6.9960     6.8720 HW1           1 RES     
    4280 HW2         24.0470     6.4300     6.8670 HW2           1 RES     
    4281 OW          14.3180    17.4280    24.2690 OW            1 RES     
    4282 HW1         14.6860    18.3570    24.2700 HW1           1 RES     
    4283 HW2         13.3180    17.4650    24.2690 HW2           1 RES     
    4284 OW          36.7680     5.7540     8.7590 OW            1 RES     
    4285 HW1         36.6370     4.8890     8.2770 HW1           1 RES     
    4286 HW2         36.6830     5.6030     9.7440 HW2           1 RES     
    4287 OW          32.1090    -1.1660    22.1130 OW            1 RES     
    4288 HW1         32.2410    -1.7930    22.8800 HW1           1 RES     
    4289 HW2         32.9520    -0.6520    21.9520 HW2           1 RES     
    4290 OW          10.7470    11.1160    16.8910 OW            1 RES     
    4291 HW1          9.7690    10.9480    17.0050 HW1           1 RES     
    4292 HW2         10.9140    12.1010    16.8460 HW2           1 RES     
    4293 OW          12.8760     9.6860    19.4790 OW            1 RES     
    4294 HW1         13.3980     8.8680    19.2380 HW1           1 RES     
    4295 HW2         12.1590     9.8360    18.7980 HW2           1 RES     
    4296 OW          20.1060    12.5010    18.0460 OW            1 RES     
    4297 HW1         19.1440    12.2420    17.9670 HW1           1 RES     
    4298 HW2         20.1890    13.4970    18.0060 HW2           1 RES     
    4299 OW          23.1200    27.7400     9.4730 OW            1 RES     
    4300 HW1         22.5690    26.9840     9.1220 HW1           1 RES     
    4301 HW2         22.8780    27.9160    10.4270 HW2           1 RES     
    4302 OW          21.9890    12.6950    16.6060 OW            1 RES     
    4303 HW1         22.6520    13.1460    16.0090 HW1           1 RES     
    4304 HW2         22.2430    12.8460    17.5610 HW2           1 RES     
    4305 OW           0.7160    17.4220    10.3860 OW            1 RES     
    4306 HW1          1.6670    17.5910    10.1300 HW1           1 RES     
    4307 HW2          0.2720    18.2880    10.6130 HW2           1 RES     
    4308 OW          22.1410    18.0120    14.3090 OW            1 RES     
    4309 HW1         22.5920    17.1370    14.1410 HW1           1 RES     
    4310 HW2         21.3820    18.1260    13.6670 HW2           1 RES     
    4311 OW          35.0470    27.9980    28.7450 OW            1 RES     
    4312 HW1         34.5530    28.3310    29.5480 HW1           1 RES     
    4313 HW2         35.6600    28.7140    28.4100 HW2           1 RES     
    4314 OW          15.8120    15.0030    21.6560 OW            1 RES     
    4315 HW1         15.5300    14.4630    20.8630 HW1           1 RES     
    4316 HW2         16.3870    15.7640    21.3550 HW2           1 RES     
    4317 OW          14.3380    38.1780    28.5110 OW            1 RES     
    4318 HW1         14.7290    38.3410    27.6060 HW1           1 RES     
    4319 HW2         15.0370    38.3340    29.2090 HW2           1 RES     
    4320 OW           4.6280    35.1420    27.0760 OW            1 RES     
    4321 HW1          4.3920    34.1770    26.9720 HW1           1 RES     
    4322 HW2          3.8760    35.6230    27.5300 HW2           1 RES     
    4323 OW          14.8090    19.7090    15.5480 OW            1 RES     
    4324 HW1         15.3620    20.5410    15.5160 HW1           1 RES     
    4325 HW2         15.3510    18.9350    15.2220 HW2           1 RES     
    4326 OW          33.9230    34.9510    22.4610 OW            1 RES     
    4327 HW1         33.8290    34.2520    23.1690 HW1           1 RES     
    4328 HW2         34.0390    34.5110    21.5710 HW2           1 RES     
    4329 OW          31.2660    24.6720    23.6300 OW            1 RES     
    4330 HW1         31.1570    25.5370    23.1410 HW1           1 RES     
    4331 HW2         30.4050    24.1640    23.6060 HW2           1 RES     
    4332 OW           6.8120     8.2650     9.4340 OW            1 RES     
    4333 HW1          7.8120     8.2530     9.4100 HW1           1 RES     
    4334 HW2          6.4890     9.2100     9.3850 HW2           1 RES     
    4335 OW          32.6390    10.9280    15.9640 OW            1 RES     
    4336 HW1         32.7100    11.0950    16.9470 HW1           1 RES     
    4337 HW2         31.6800    10.9810    15.6850 HW2           1 RES     
    4338 OW          27.1190     1.0960    15.5270 OW            1 RES     
    4339 HW1         26.1870     1.1350    15.1680 HW1           1 RES     
    4340 HW2         27.7700     1.1080    14.7680 HW2           1 RES     
    4341 OW          33.3790     2.5280    14.0480 OW            1 RES     
    4342 HW1         33.6660     2.0150    13.2400 HW1           1 RES     
    4343 HW2         32.5870     3.0950    13.8190 HW2           1 RES     
    4344 OW          35.0200    15.7510    10.0030 OW            1 RES     
    4345 HW1         34.2630    15.2530    10.4240 HW1           1 RES     
    4346 HW2         35.3410    16.4620    10.6290 HW2           1 RES     
    4347 OW           5.1750    11.9030    13.4240 OW            1 RES     
    4348 HW1          6.1080    11.7500    13.7490 HW1           1 RES     
    4349 HW2          4.7020    11.0250    13.3430 HW2           1 RES     
    4350 OW          13.9700    31.8340    13.2460 OW            1 RES     
    4351 HW1         14.9150    31.5090    13.2040 HW1           1 RES     
    4352 HW2         13.9640    32.8270    13.3610 HW2           1 RES     
    4353 OW           1.2570    22.2640    14.7610 OW            1 RES     
    4354 HW1          0.4440    22.6090    15.2270 HW1           1 RES     
    4355 HW2          2.0550    22.7990    15.0400 HW2           1 RES     
    4356 OW          13.3440    32.1790    10.8500 OW            1 RES     
    4357 HW1         12.6880    32.6690    11.4230 HW1           1 RES     
    4358 HW2         13.2890    31.1990    11.0430 HW2           1 RES     
    4359 OW          14.5480    23.7480    25.0590 OW            1 RES     
    4360 HW1         15.4780    23.9880    24.7830 HW1           1 RES     
    4361 HW2         14.4380    22.7540    25.0310 HW2           1 RES     
    4362 OW           4.6140    17.3960    29.9880 OW            1 RES     
    4363 HW1          5.0270    17.0110    29.1640 HW1           1 RES     
    4364 HW2          4.1620    18.2590    29.7640 HW2           1 RES     
    4365 OW          10.7020    11.0660    22.1290 OW            1 RES     
    4366 HW1         10.7070    10.9440    23.1200 HW1           1 RES     
    4367 HW2         10.1190    11.8430    21.8910 HW2           1 RES     
    4368 OW          27.1670    20.7670    15.5650 OW            1 RES     
    4369 HW1         26.2810    20.3060    15.5120 HW1           1 RES     
    4370 HW2         27.8000    20.2110    16.1050 HW2           1 RES     
    4371 OW          16.9310    -1.1740    29.3810 OW            1 RES     
    4372 HW1         17.3880    -0.8990    28.5350 HW1           1 RES     
    4373 HW2         16.1320    -0.5920    29.5330 HW2           1 RES     
    4374 OW          34.5000    12.6900    28.3030 OW            1 RES     
    4375 HW1         35.2330    12.3760    27.7000 HW1           1 RES     
    4376 HW2         33.9660    13.3970    27.8400 HW2           1 RES     
    4377 OW           6.6380    -1.1040     8.5660 OW            1 RES     
    4378 HW1          7.2350    -1.8410     8.2530 HW1           1 RES     
    4379 HW2          6.0440    -1.4420     9.2960 HW2           1 RES     
    4380 OW           7.8540     5.9080    27.2890 OW            1 RES     
    4381 HW1          7.1490     6.5250    26.9410 HW1           1 RES     
    4382 HW2          8.6050     6.4430    27.6770 HW2           1 RES     
    4383 OW          35.2930    30.0450    16.5810 OW            1 RES     
    4384 HW1         35.8980    29.2850    16.3500 HW1           1 RES     
    4385 HW2         34.3630    29.7020    16.7180 HW2           1 RES     
    4386 OW          10.5910    14.9440    20.9010 OW            1 RES     
    4387 HW1         10.4950    13.9730    20.6890 HW1           1 RES     
    4388 HW2         11.3220    15.0680    21.5740 HW2           1 RES     
    4389 OW          34.9030    16.0840    14.0420 OW            1 RES     
    4390 HW1         35.2310    15.4930    14.7780 HW1           1 RES     
    4391 HW2         33.9240    16.2510    14.1590 HW2           1 RES     
    4392 OW           1.5400    11.7010     9.9380 OW            1 RES     
    4393 HW1          2.2120    10.9680    10.0380 HW1           1 RES     
    4394 HW2          1.0650    11.8380    10.8080 HW2           1 RES     
    4395 OW          14.5940    31.4200     7.7760 OW            1 RES     
    4396 HW1         14.3110    31.3280     8.7300 HW1           1 RES     
    4397 HW2         15.1450    30.6280     7.5140 HW2           1 RES     
    4398 OW           8.2610     2.7560    14.9000 OW            1 RES     
    4399 HW1          8.1290     3.2360    14.0330 HW1           1 RES     
    4400 HW2          7.3730     2.4760    15.2650 HW2           1 RES     
    4401 OW           0.1090    -0.8000    26.8840 OW            1 RES     
    4402 HW1          0.1050    -1.6330    26.3330 HW1           1 RES     
    4403 HW2          0.9730    -0.7340    27.3830 HW2           1 RES     
    4404 OW           1.3350    30.1330    14.4720 OW            1 RES     
    4405 HW1          0.5820    30.3430    13.8500 HW1           1 RES     
    4406 HW2          2.1560    30.6250    14.1800 HW2           1 RES     
    4407 OW          26.1870    -0.3110    13.1860 OW            1 RES     
    4408 HW1         26.3240    -0.8140    12.3330 HW1           1 RES     
    4409 HW2         25.5440     0.4400    13.0310 HW2           1 RES     
    4410 OW          22.7580     4.1210    18.8230 OW            1 RES     
    4411 HW1         22.7270     3.5500    18.0040 HW1           1 RES     
    4412 HW2         22.5260     5.0630    18.5830 HW2           1 RES     
    4413 OW          22.4210    30.5800    16.6990 OW            1 RES     
    4414 HW1         22.3920    31.1120    17.5440 HW1           1 RES     
    4415 HW2         21.9630    29.7020    16.8410 HW2           1 RES     
    4416 OW          11.2700     2.7280    10.6190 OW            1 RES     
    4417 HW1         11.3680     1.7530    10.4220 HW1           1 RES     
    4418 HW2         11.8010     2.9580    11.4360 HW2           1 RES     
    4419 OW          36.3560     2.3520     7.6480 OW            1 RES     
    4420 HW1         35.7900     2.6590     6.8840 HW1           1 RES     
    4421 HW2         36.3930     1.3520     7.6560 HW2           1 RES     
    4422 OW          37.9460    17.8860    21.2380 OW            1 RES     
    4423 HW1         38.1520    18.8630    21.2940 HW1           1 RES     
    4424 HW2         38.3070    17.5180    20.3810 HW2           1 RES     
    4425 OW           5.7590    33.8570    19.6090 OW            1 RES     
    4426 HW1          6.3390    34.6120    19.3070 HW1           1 RES     
    4427 HW2          4.9320    33.8240    19.0470 HW2           1 RES     
    4428 OW           5.8960    33.2750    11.5180 OW            1 RES     
    4429 HW1          6.7990    32.8530    11.5960 HW1           1 RES     
    4430 HW2          5.9980    34.2660    11.4280 HW2           1 RES     
    4431 OW           8.1980     0.2240    24.6090 OW            1 RES     
    4432 HW1          7.4620    -0.4510    24.6120 HW1           1 RES     
    4433 HW2          7.8130     1.1380    24.4750 HW2           1 RES     
    4434 OW          27.2120    34.4350    17.5300 OW            1 RES     
    4435 HW1         27.4050    33.6110    18.0610 HW1           1 RES     
    4436 HW2         26.2750    34.3960    17.1820 HW2           1 RES     
    4437 OW          -0.2710    29.8120    29.6510 OW            1 RES     
    4438 HW1         -0.6620    30.1990    28.8160 HW1           1 RES     
    4439 HW2         -1.0020    29.4290    30.2150 HW2           1 RES     
    4440 OW          23.7980    28.8500    21.8700 OW            1 RES     
    4441 HW1         24.7240    28.4760    21.8610 HW1           1 RES     
    4442 HW2         23.7530    29.6150    22.5120 HW2           1 RES     
    4443 OW          27.4230    20.2210    27.2770 OW            1 RES     
    4444 HW1         28.2070    20.7550    27.5900 HW1           1 RES     
    4445 HW2         27.6780    19.2550    27.2210 HW2           1 RES     
    4446 OW          15.4840     2.3760    30.4430 OW            1 RES     
    4447 HW1         15.6680     1.3990    30.3460 HW1           1 RES     
    4448 HW2         14.4960     2.5320    30.4330 HW2           1 RES     
    4449 OW           9.0510     1.2200    21.7450 OW            1 RES     
    4450 HW1          9.4720     0.9080    22.5960 HW1           1 RES     
    4451 HW2          9.2420     0.5610    21.0170 HW2           1 RES     
    4452 OW          26.8970    36.5080    26.8040 OW            1 RES     
    4453 HW1         25.9490    36.7840    26.6500 HW1           1 RES     
    4454 HW2         26.9800    35.5180    26.6860 HW2           1 RES     
    4455 OW          20.0430    21.1470    16.6990 OW            1 RES     
    4456 HW1         19.1360    21.5570    16.7850 HW1           1 RES     
    4457 HW2         20.7310    21.8690    16.6320 HW2           1 RES     
    4458 OW          36.9130     0.8890    20.6210 OW            1 RES     
    4459 HW1         36.4710    -0.0070    20.6690 HW1           1 RES     
    4460 HW2         37.9070     0.7710    20.6210 HW2           1 RES     
    4461 OW          11.5310    18.9740    12.8050 OW            1 RES     
    4462 HW1         12.1490    19.4260    12.1630 HW1           1 RES     
    4463 HW2         11.3580    18.0370    12.4990 HW2           1 RES     
    4464 OW          20.8640    14.6380    28.3490 OW            1 RES     
    4465 HW1         20.1450    15.2340    27.9920 HW1           1 RES     
    4466 HW2         20.5540    13.6870    28.3210 HW2           1 RES     
    4467 OW          33.7310    -0.8700    26.6080 OW            1 RES     
    4468 HW1         34.3610    -1.6040    26.8580 HW1           1 RES     
    4469 HW2         33.8770    -0.0860    27.2110 HW2           1 RES     
    4470 OW          10.9760     7.2660    20.2190 OW            1 RES     
    4471 HW1         11.4820     8.1260    20.1590 HW1           1 RES     
    4472 HW2         11.6200     6.5020    20.2580 HW2           1 RES     
    4473 OW          19.7880    22.5660    14.3920 OW            1 RES     
    4474 HW1         19.9170    23.4680    13.9820 HW1           1 RES     
    4475 HW2         18.8840    22.5180    14.8180 HW2           1 RES     
    4476 OW          15.2640    14.5760    25.9130 OW            1 RES     
    4477 HW1         15.2990    14.8830    24.9620 HW1           1 RES     
    4478 HW2         14.8290    15.2800    26.4750 HW2           1 RES     
    4479 OW          13.1350    24.3630    10.7120 OW            1 RES     
    4480 HW1         14.0690    24.7030    10.6110 HW1           1 RES     
    4481 HW2         12.4880    25.0840    10.4640 HW2           1 RES     
    4482 OW          14.9240    35.8920    18.1130 OW            1 RES     
    4483 HW1         14.2100    35.4110    17.6060 HW1           1 RES     
    4484 HW2         15.0180    36.8220    17.7570 HW2           1 RES     
    4485 OW          12.5510    17.4290    15.3360 OW            1 RES     
    4486 HW1         13.3940    17.7600    15.7570 HW1           1 RES     
    4487 HW2         12.4720    17.8000    14.4100 HW2           1 RES     
    4488 OW           1.8540    37.2870    29.5710 OW            1 RES     
    4489 HW1          1.0030    37.8120    29.5570 HW1           1 RES     
    4490 HW2          1.7580    36.4790    28.9890 HW2           1 RES     
    4491 OW          17.9130    23.6650    22.4280 OW            1 RES     
    4492 HW1         18.8560    23.4760    22.6990 HW1           1 RES     
    4493 HW2         17.8880    24.4840    21.8540 HW2           1 RES     
    4494 OW           0.6530    23.1000     8.5330 OW            1 RES     
    4495 HW1          1.0430    23.6500     7.7950 HW1           1 RES     
    4496 HW2          1.3300    22.4340     8.8460 HW2           1 RES     
    4497 OW           2.5720    35.8910    12.1630 OW            1 RES     
    4498 HW1          2.5610    36.8120    11.7770 HW1           1 RES     
    4499 HW2          3.5130    35.5560    12.2020 HW2           1 RES     
    4500 OW          38.8780    13.4780    19.8370 OW            1 RES     
    4501 HW1         37.9130    13.6000    19.6050 HW1           1 RES     
    4502 HW2         39.1880    14.2510    20.3910 HW2           1 RES     
    4503 OW          23.9810     7.3280    26.9860 OW            1 RES     
    4504 HW1         23.3770     6.5340    27.0390 HW1           1 RES     
    4505 HW2         23.7170     7.8970    26.2070 HW2           1 RES     
    4506 OW          25.9500    33.8720    11.3930 OW            1 RES     
    4507 HW1         26.5810    33.1220    11.1980 HW1           1 RES     
    4508 HW2         25.7300    33.8790    12.3680 HW2           1 RES     
    4509 OW          20.5820    34.1100     8.3610 OW            1 RES     
    4510 HW1         21.5510    33.8690     8.4140 HW1           1 RES     
    4511 HW2         20.0280    33.3230     8.6320 HW2           1 RES     
    4512 OW          30.2390     9.8940    22.3970 OW            1 RES     
    4513 HW1         31.2290     9.8940    22.5310 HW1           1 RES     
    4514 HW2         29.9070    10.8370    22.3580 HW2           1 RES     
    4515 OW          37.1380    26.8580    30.2900 OW            1 RES     
    4516 HW1         37.1210    27.5920    29.6130 HW1           1 RES     
    4517 HW2         38.0830    26.5660    30.4420 HW2           1 RES     
    4518 OW          13.7710     6.7190    22.0180 OW            1 RES     
    4519 HW1         13.6520     6.3710    21.0890 HW1           1 RES     
    4520 HW2         13.4150     6.0520    22.6730 HW2           1 RES     
    4521 OW          23.1360     0.4850    27.1770 OW            1 RES     
    4522 HW1         22.5650     0.9120    27.8770 HW1           1 RES     
    4523 HW2         23.2530     1.1160    26.4100 HW2           1 RES     
    4524 OW          19.4420    21.5400    26.4300 OW            1 RES     
    4525 HW1         18.4890    21.6880    26.1670 HW1           1 RES     
    4526 HW2         20.0420    21.8160    25.6790 HW2           1 RES     
    4527 OW          29.2430     4.3500    30.1600 OW            1 RES     
    4528 HW1         28.3420     4.7710    30.0620 HW1           1 RES     
    4529 HW2         29.1460     3.3540    30.1770 HW2           1 RES     
    4530 OW          13.9670     9.2620    16.3430 OW            1 RES     
    4531 HW1         13.3990     8.7870    17.0140 HW1           1 RES     
    4532 HW2         14.8100     8.7460    16.1940 HW2           1 RES     
    4533 OW          22.9530    34.0330    17.5090 OW            1 RES     
    4534 HW1         22.2680    33.4400    17.9330 HW1           1 RES     
    4535 HW2         22.5890    34.9610    17.4330 HW2           1 RES     
    4536 OW          36.6130    29.8430    18.7650 OW            1 RES     
    4537 HW1         35.6690    29.5360    18.8820 HW1           1 RES     
    4538 HW2         37.1230    29.1620    18.2400 HW2           1 RES     
    4539 OW          24.1310    15.5440    20.4260 OW            1 RES     
    4540 HW1         25.0450    15.1690    20.5760 HW1           1 RES     
    4541 HW2         24.2040    16.4420    19.9920 HW2           1 RES     
    4542 OW           3.7940    -1.0960    15.4950 OW            1 RES     
    4543 HW1          4.5170    -1.7780    15.3880 HW1           1 RES     
    4544 HW2          2.9270    -1.5560    15.6890 HW2           1 RES     
    4545 OW          24.1710    -0.0270    29.0570 OW            1 RES     
    4546 HW1         23.5950    -0.7860    29.3600 HW1           1 RES     
    4547 HW2         24.0400     0.7550    29.6660 HW2           1 RES     
    4548 OW          16.9080     8.0510    16.0500 OW            1 RES     
    4549 HW1         17.2560     8.3830    16.9270 HW1           1 RES     
    4550 HW2         17.4910     7.3080    15.7200 HW2           1 RES     
    4551 OW           6.4460    17.2320    26.9730 OW            1 RES     
    4552 HW1          5.7980    17.9290    27.2760 HW1           1 RES     
    4553 HW2          7.0090    16.9390    27.7460 HW2           1 RES     
    4554 OW          16.6030     3.9770    21.1730 OW            1 RES     
    4555 HW1         17.4280     4.5300    21.2790 HW1           1 RES     
    4556 HW2         16.7830     3.0440    21.4860 HW2           1 RES     
    4557 OW           3.5800    15.9870     8.1440 OW            1 RES     
    4558 HW1          3.0560    16.5860     8.7500 HW1           1 RES     
    4559 HW2          3.7310    15.1070     8.5950 HW2           1 RES     
    4560 OW           2.4680    36.1320     9.6530 OW            1 RES     
    4561 HW1          2.9900    35.2920     9.7990 HW1           1 RES     
    4562 HW2          1.5430    35.9010     9.3490 HW2           1 RES     
    4563 OW           3.1910     1.4570    17.9890 OW            1 RES     
    4564 HW1          2.2580     1.6880    17.7190 HW1           1 RES     
    4565 HW2          3.5950     0.8450    17.3090 HW2           1 RES     
    4566 OW          35.1890    23.4250    27.8290 OW            1 RES     
    4567 HW1         34.3890    23.9600    27.5590 HW1           1 RES     
    4568 HW2         35.5690    22.9650    27.0270 HW2           1 RES     
    4569 OW          18.9200    13.1770    30.1120 OW            1 RES     
    4570 HW1         19.2300    12.2860    30.4420 HW1           1 RES     
    4571 HW2         19.6190    13.8660    30.3040 HW2           1 RES     
    4572 OW          33.0280    29.8190    12.4280 OW            1 RES     
    4573 HW1         33.7060    29.2900    11.9200 HW1           1 RES     
    4574 HW2         33.4800    30.3160    13.1700 HW2           1 RES     
    4575 OW           1.5090    27.1790    25.9050 OW            1 RES     
    4576 HW1          1.3960    26.9930    26.8800 HW1           1 RES     
    4577 HW2          1.4460    28.1650    25.7440 HW2           1 RES     
    4578 OW          24.3610    10.5350    18.2650 OW            1 RES     
    4579 HW1         23.4690    10.1270    18.0750 HW1           1 RES     
    4580 HW2         25.0830     9.8860    18.0230 HW2           1 RES     
    4581 OW          23.3200    26.5040    12.9920 OW            1 RES     
    4582 HW1         24.1990    26.9340    13.1980 HW1           1 RES     
    4583 HW2         23.3970    25.5140    13.1090 HW2           1 RES     
    4584 OW           9.2130    27.6200    30.3060 OW            1 RES     
    4585 HW1         10.0600    28.1470    30.3640 HW1           1 RES     
    4586 HW2          8.4310    28.2290    30.4430 HW2           1 RES     
    4587 OW          13.1710    18.2250     9.8950 OW            1 RES     
    4588 HW1         12.2450    18.4610    10.1880 HW1           1 RES     
    4589 HW2         13.1580    17.3400     9.4300 HW2           1 RES     
    4590 OW          29.6450     9.4230    26.5380 OW            1 RES     
    4591 HW1         29.2330     9.7750    27.3770 HW1           1 RES     
    4592 HW2         30.6000     9.1820    26.7110 HW2           1 RES     
    4593 OW           0.7130    17.6640    18.1400 OW            1 RES     
    4594 HW1          1.4230    17.0740    17.7560 HW1           1 RES     
    4595 HW2          0.3680    17.2630    18.9890 HW2           1 RES     
    4596 OW          28.0510    -1.8650    22.0100 OW            1 RES     
    4597 HW1         28.9570    -1.7270    22.4070 HW1           1 RES     
    4598 HW2         27.3550    -1.7580    22.7200 HW2           1 RES     
    4599 OW           4.6560    28.3550    21.0250 OW            1 RES     
    4600 HW1          4.5680    28.6210    20.0650 HW1           1 RES     
    4601 HW2          4.5510    29.1630    21.6060 HW2           1 RES     
    4602 OW          27.8970    34.6980    21.6300 OW            1 RES     
    4603 HW1         28.1090    33.7240    21.5630 HW1           1 RES     
    4604 HW2         28.3220    35.0760    22.4530 HW2           1 RES     
    4605 OW          16.8440     7.8160    25.3950 OW            1 RES     
    4606 HW1         15.8480     7.8920    25.3860 HW1           1 RES     
    4607 HW2         17.2490     8.7130    25.2170 HW2           1 RES     
    4608 OW          15.8570    21.6780    13.3660 OW            1 RES     
    4609 HW1         16.3690    22.2710    13.9850 HW1           1 RES     
    4610 HW2         16.2130    20.7450    13.4260 HW2           1 RES     
    4611 OW          24.3600    33.6680    24.7920 OW            1 RES     
    4612 HW1         23.3780    33.6010    24.9670 HW1           1 RES     
    4613 HW2         24.8610    33.5480    25.6490 HW2           1 RES     
    4614 OW          31.7290    11.7330    27.9590 OW            1 RES     
    4615 HW1         30.9970    11.0520    27.9770 HW1           1 RES     
    4616 HW2         31.5220    12.4270    27.2690 HW2           1 RES     
    4617 OW          10.3240    11.1300    10.7410 OW            1 RES     
    4618 HW1         10.6250    10.1880    10.8850 HW1           1 RES     
    4619 HW2         10.6270    11.6980    11.5060 HW2           1 RES     
    4620 OW          24.8630     4.3630    23.1440 OW            1 RES     
    4621 HW1         24.2260     4.5660    22.4000 HW1           1 RES     
    4622 HW2         25.8020     4.4360    22.8080 HW2           1 RES     
    4623 OW          25.5910    20.7350     8.6570 OW            1 RES     
    4624 HW1         26.2390    21.4790     8.4990 HW1           1 RES     
    4625 HW2         24.7920    21.0850     9.1450 HW2           1 RES     
    4626 OW          27.5800    31.8850    29.7310 OW            1 RES     
    4627 HW1         28.5350    32.1800    29.7030 HW1           1 RES     
    4628 HW2         27.0380    32.5530    30.2410 HW2           1 RES     
    4629 OW          23.7740    37.7580    27.0050 OW            1 RES     
    4630 HW1         23.0020    38.3410    26.7530 HW1           1 RES     
    4631 HW2         23.7630    36.9280    26.4470 HW2           1 RES     
    4632 OW          10.9260     4.6930    23.7220 OW            1 RES     
    4633 HW1         11.4860     5.0370    22.9690 HW1           1 RES     
    4634 HW2         10.2580     5.3890    23.9860 HW2           1 RES     
    4635 OW          24.6540    32.2530    16.2630 OW            1 RES     
    4636 HW1         24.6470    31.9510    17.2160 HW1           1 RES     
    4637 HW2         24.6550    33.2530    16.2290 HW2           1 RES     
    4638 OW           1.7300    10.1640    13.9820 OW            1 RES     
    4639 HW1          1.9530     9.1900    13.9700 HW1           1 RES     
    4640 HW2          2.5720    10.7010    13.9390 HW2           1 RES     
    4641 OW          -0.9370    26.7440    21.0530 OW            1 RES     
    4642 HW1         -1.0000    27.7350    20.9420 HW1           1 RES     
    4643 HW2          0.0110    26.4530    20.9210 HW2           1 RES     
    4644 OW          34.7230     0.6120    16.6480 OW            1 RES     
    4645 HW1         34.7200    -0.3000    17.0580 HW1           1 RES     
    4646 HW2         35.5460     0.7250    16.0920 HW2           1 RES     
    4647 OW          21.3380    11.4900    24.7340 OW            1 RES     
    4648 HW1         21.6060    11.7430    23.8050 HW1           1 RES     
    4649 HW2         22.1090    11.0500    25.1960 HW2           1 RES     
    4650 OW           5.8390     8.9010    12.3890 OW            1 RES     
    4651 HW1          6.0440     8.5530    11.4750 HW1           1 RES     
    4652 HW2          6.5880     9.4850    12.7000 HW2           1 RES     
    4653 OW           5.5510     7.7870    24.7100 OW            1 RES     
    4654 HW1          5.1050     8.6800    24.7650 HW1           1 RES     
    4655 HW2          6.3880     7.8650    24.1670 HW2           1 RES     
    4656 OW          24.5070    -2.0470    21.8450 OW            1 RES     
    4657 HW1         25.2340    -1.4560    22.1950 HW1           1 RES     
    4658 HW2         23.6870    -1.5010    21.6730 HW2           1 RES     
    4659 OW          22.1610    26.1040    18.4620 OW            1 RES     
    4660 HW1         22.3610    25.1530    18.6970 HW1           1 RES     
    4661 HW2         21.2560    26.3510    18.8120 HW2           1 RES     
    4662 OW           2.8260    15.9500    30.3810 OW            1 RES     
    4663 HW1          2.8380    16.2280    29.4210 HW1           1 RES     
    4664 HW2          2.6640    14.9650    30.4420 HW2           1 RES     
    4665 OW           4.7710    34.8250    24.8850 OW            1 RES     
    4666 HW1          5.3020    34.0000    24.6920 HW1           1 RES     
    4667 HW2          5.0280    35.5460    24.2420 HW2           1 RES     
    4668 OW           1.9310    18.6720    29.3270 OW            1 RES     
    4669 HW1          1.0650    19.1330    29.1350 HW1           1 RES     
    4670 HW2          2.0610    18.6030    30.3160 HW2           1 RES     
    4671 OW          14.6070    -0.2450    27.9760 OW            1 RES     
    4672 HW1         14.0580     0.5910    27.9620 HW1           1 RES     
    4673 HW2         14.0480    -1.0060    28.3070 HW2           1 RES     
    4674 OW          35.5550    33.6710    19.7960 OW            1 RES     
    4675 HW1         36.0140    34.2360    20.4810 HW1           1 RES     
    4676 HW2         36.2180    33.0520    19.3750 HW2           1 RES     
    4677 OW           8.9180     5.0980    20.0040 OW            1 RES     
    4678 HW1          9.0840     4.1560    19.7160 HW1           1 RES     
    4679 HW2          8.0620     5.1440    20.5190 HW2           1 RES     
    4680 OW          35.9090     3.9940    14.0290 OW            1 RES     
    4681 HW1         36.3110     4.1960    14.9220 HW1           1 RES     
    4682 HW2         34.9200     4.1410    14.0680 HW2           1 RES     
    4683 OW          16.9870    35.5910    19.6290 OW            1 RES     
    4684 HW1         17.3390    36.4810    19.9170 HW1           1 RES     
    4685 HW2         17.4820    34.8660    20.1070 HW2           1 RES     
    4686 OW          -1.0050     1.7140    16.3380 OW            1 RES     
    4687 HW1         -0.8470     0.7640    16.0730 HW1           1 RES     
    4688 HW2         -0.1280     2.1570    16.5300 HW2           1 RES     
    4689 OW          32.8490     2.1420     7.9970 OW            1 RES     
    4690 HW1         32.6040     1.3560     8.5640 HW1           1 RES     
    4691 HW2         33.8070     2.3820     8.1560 HW2           1 RES     
    4692 OW           5.7660    24.0150    12.4800 OW            1 RES     
    4693 HW1          5.2420    24.8660    12.5060 HW1           1 RES     
    4694 HW2          5.4110    23.4260    11.7540 HW2           1 RES     
    4695 OW          31.0460     6.0150    11.8840 OW            1 RES     
    4696 HW1         31.0230     6.9250    11.4720 HW1           1 RES     
    4697 HW2         30.9110     5.3230    11.1750 HW2           1 RES     
    4698 OW          35.1770    38.3410    27.7490 OW            1 RES     
    4699 HW1         35.6410    37.4570    27.7740 HW1           1 RES     
    4700 HW2         34.2100    38.2040    27.5290 HW2           1 RES     
    4701 OW           3.8750    31.9140    22.4490 OW            1 RES     
    4702 HW1          3.9590    32.6100    23.1610 HW1           1 RES     
    4703 HW2          4.7870    31.6250    22.1550 HW2           1 RES     
    4704 OW          29.9400    19.3190    24.1010 OW            1 RES     
    4705 HW1         29.3910    18.5750    23.7220 HW1           1 RES     
    4706 HW2         29.8440    20.1310    23.5260 HW2           1 RES     
    4707 OW          21.2480    20.3190    14.4900 OW            1 RES     
    4708 HW1         20.2540    20.4190    14.5070 HW1           1 RES     
    4709 HW2         21.6750    21.2230    14.4860 HW2           1 RES     
    4710 OW          30.0850    21.8150    27.1520 OW            1 RES     
    4711 HW1         30.3930    20.9140    26.8460 HW1           1 RES     
    4712 HW2         30.4940    22.0240    28.0400 HW2           1 RES     
    4713 OW          -1.0050    12.8740    25.7740 OW            1 RES     
    4714 HW1         -0.5190    13.4120    25.0860 HW1           1 RES     
    4715 HW2         -0.6640    11.9340    25.7630 HW2           1 RES     
    4716 OW          15.6350     6.1530    17.9450 OW            1 RES     
    4717 HW1         16.5660     6.4820    17.7960 HW1           1 RES     
    4718 HW2         15.0030     6.9290    17.9490 HW2           1 RES     
    4719 OW          16.7120    16.2740    25.9240 OW            1 RES     
    4720 HW1         17.2800    16.9870    26.3340 HW1           1 RES     
    4721 HW2         17.2720    15.4650    25.7410 HW2           1 RES     
    4722 OW          30.6570    10.1320    19.6610 OW            1 RES     
    4723 HW1         30.1520     9.3210    19.9530 HW1           1 RES     
    4724 HW2         31.0070    10.6140    20.4640 HW2           1 RES     
    4725 OW          33.1920     4.1760    24.3040 OW            1 RES     
    4726 HW1         32.2470     4.4310    24.5060 HW1           1 RES     
    4727 HW2         33.2270     3.2150    24.0310 HW2           1 RES     
    4728 OW          11.9830     5.1100    14.7140 OW            1 RES     
    4729 HW1         11.6370     4.3830    14.1210 HW1           1 RES     
    4730 HW2         12.1370     4.7470    15.6330 HW2           1 RES     
    4731 OW          27.6550     4.4900    19.0400 OW            1 RES     
    4732 HW1         28.0710     5.2110    18.4880 HW1           1 RES     
    4733 HW2         27.9600     3.5970    18.7070 HW2           1 RES     
    4734 OW           1.6140     3.2330    13.6910 OW            1 RES     
    4735 HW1          2.0690     3.9350    14.2370 HW1           1 RES     
    4736 HW2          2.1790     2.4080    13.6700 HW2           1 RES     
    4737 OW          32.0120    -0.8790    18.2620 OW            1 RES     
    4738 HW1         32.4700     0.0080    18.3160 HW1           1 RES     
    4739 HW2         31.0360    -0.7630    18.4460 HW2           1 RES     
    4740 OW          10.1700    13.6680    18.2070 OW            1 RES     
    4741 HW1          9.8850    14.5940    17.9620 HW1           1 RES     
    4742 HW2          9.3800    13.1520    18.5380 HW2           1 RES     
    4743 OW          16.7660    17.3160    29.6430 OW            1 RES     
    4744 HW1         16.0960    16.7450    30.1170 HW1           1 RES     
    4745 HW2         16.8720    16.9940    28.7020 HW2           1 RES     
    4746 OW           6.6780    33.4410    29.4460 OW            1 RES     
    4747 HW1          6.3970    32.5510    29.0880 HW1           1 RES     
    4748 HW2          6.7390    33.3950    30.4430 HW2           1 RES     
    4749 OW           7.0510     6.8240     6.8680 OW            1 RES     
    4750 HW1          6.7470     7.7730     6.9540 HW1           1 RES     
    4751 HW2          7.3880     6.4990     7.7510 HW2           1 RES     
    4752 OW          27.3570    29.8230    25.1350 OW            1 RES     
    4753 HW1         28.2260    29.5810    24.7060 HW1           1 RES     
    4754 HW2         26.7770    30.2980    24.4730 HW2           1 RES     
    4755 OW           5.7580     1.3090    17.6250 OW            1 RES     
    4756 HW1          6.6720     1.5870    17.3340 HW1           1 RES     
    4757 HW2          5.3070     2.0730    18.0870 HW2           1 RES     
    4758 OW           7.2760    37.5890    24.3680 OW            1 RES     
    4759 HW1          8.0440    38.2140    24.5020 HW1           1 RES     
    4760 HW2          6.4550    38.1140    24.1410 HW2           1 RES     
    4761 OW          22.3360    31.9190    13.9540 OW            1 RES     
    4762 HW1         22.6940    31.7900    14.8780 HW1           1 RES     
    4763 HW2         21.6630    32.6590    13.9570 HW2           1 RES     
    4764 OW          37.5480    32.4320    21.3600 OW            1 RES     
    4765 HW1         37.8720    33.3770    21.3510 HW1           1 RES     
    4766 HW2         38.3160    31.8140    21.1900 HW2           1 RES     
    4767 OW          10.1830     8.2950    17.4460 OW            1 RES     
    4768 HW1          9.8090     9.0070    18.0390 HW1           1 RES     
    4769 HW2          9.8620     8.4390    16.5100 HW2           1 RES     
    4770 OW          15.0970     7.4880    13.2290 OW            1 RES     
    4771 HW1         14.8050     6.5420    13.0920 HW1           1 RES     
    4772 HW2         15.6510     7.7830    12.4500 HW2           1 RES     
    4773 OW           1.1590    15.6740    12.1440 OW            1 RES     
    4774 HW1          0.6710    16.0940    12.9090 HW1           1 RES     
    4775 HW2          2.1270    15.5770    12.3790 HW2           1 RES     
    4776 OW          17.4290     3.7870    23.5020 OW            1 RES     
    4777 HW1         18.2720     4.2870    23.3040 HW1           1 RES     
    4778 HW2         16.7790     4.3960    23.9580 HW2           1 RES     
    4779 OW          23.4820     0.9860    13.5680 OW            1 RES     
    4780 HW1         22.5820     0.5510    13.5720 HW1           1 RES     
    4781 HW2         23.3760     1.9700    13.4170 HW2           1 RES     
    4782 OW          14.1360     3.8310    23.6610 OW            1 RES     
    4783 HW1         14.3550     4.6900    24.1230 HW1           1 RES     
    4784 HW2         14.8880     3.5790    23.0510 HW2           1 RES     
    4785 OW          27.5070    27.0320    11.6520 OW            1 RES     
    4786 HW1         27.0420    26.5840    12.4150 HW1           1 RES     
    4787 HW2         27.2140    26.6150    10.7910 HW2           1 RES     
    4788 OW          11.3840    17.1760    26.0880 OW            1 RES     
    4789 HW1         11.5810    17.9740    25.5200 HW1           1 RES     
    4790 HW2         12.1960    16.9360    26.6200 HW2           1 RES     
    4791 OW          16.8640    34.7400     7.0130 OW            1 RES     
    4792 HW1         16.3370    35.4330     7.5030 HW1           1 RES     
    4793 HW2         16.7160    33.8460     7.4380 HW2           1 RES     
    4794 OW          19.3420    38.1080    15.4980 OW            1 RES     
    4795 HW1         19.9120    37.2980    15.6310 HW1           1 RES     
    4796 HW2         18.4450    37.8310    15.1510 HW2           1 RES     
    4797 OW          26.0190     3.5330    17.6740 OW            1 RES     
    4798 HW1         26.6080     2.9930    17.0750 HW1           1 RES     
    4799 HW2         25.8030     3.0040    18.4950 HW2           1 RES     
    4800 OW          32.2800    10.9380    24.4970 OW            1 RES     
    4801 HW1         31.5430    11.5320    24.1770 HW1           1 RES     
    4802 HW2         33.1350    11.1940    24.0450 HW2           1 RES     
    4803 OW          11.6470    29.5620    27.8270 OW            1 RES     
    4804 HW1         12.5490    29.7650    28.2080 HW1           1 RES     
    4805 HW2         11.7410    28.9030    27.0800 HW2           1 RES     
    4806 OW          36.6160     1.8350    14.4240 OW            1 RES     
    4807 HW1         37.1660     1.8550    13.5910 HW1           1 RES     
    4808 HW2         35.6450     1.8150    14.1830 HW2           1 RES     
    4809 OW          35.6820    29.8330    21.0630 OW            1 RES     
    4810 HW1         36.0970    30.6830    20.7400 HW1           1 RES     
    4811 HW2         34.6930    29.8680    20.9180 HW2           1 RES     
    4812 OW          14.9770    34.7440     9.7140 OW            1 RES     
    4813 HW1         15.9160    34.5160     9.4580 HW1           1 RES     
    4814 HW2         14.5880    35.3680     9.0370 HW2           1 RES     
    4815 OW          12.1510    36.0020    24.4020 OW            1 RES     
    4816 HW1         11.8330    36.8230    23.9290 HW1           1 RES     
    4817 HW2         12.3770    35.2960    23.7300 HW2           1 RES     
    4818 OW          17.1360    28.4960    18.0440 OW            1 RES     
    4819 HW1         16.2090    28.8570    17.9450 HW1           1 RES     
    4820 HW2         17.1440    27.5260    17.8000 HW2           1 RES     
    4821 OW          12.4160    33.4870     8.4900 OW            1 RES     
    4822 HW1         12.4700    32.6510     7.9460 HW1           1 RES     
    4823 HW2         12.0630    33.2710     9.4010 HW2           1 RES     
    4824 OW          25.5120    28.0660     9.0680 OW            1 RES     
    4825 HW1         25.1850    28.3240     9.9770 HW1           1 RES     
    4826 HW2         25.9060    27.1470     9.1040 HW2           1 RES     
    4827 OW           2.9630     8.4260    24.2910 OW            1 RES     
    4828 HW1          2.0940     8.7280    23.9000 HW1           1 RES     
    4829 HW2          2.8490     7.5190    24.6980 HW2           1 RES     
    4830 OW          22.3830    17.6920    23.2310 OW            1 RES     
    4831 HW1         22.9530    18.3630    23.7050 HW1           1 RES     
    4832 HW2         21.7380    18.1660    22.6320 HW2           1 RES     
    4833 OW          15.7990    28.9190    15.7850 OW            1 RES     
    4834 HW1         15.3920    28.0070    15.7640 HW1           1 RES     
    4835 HW2         16.2880    29.0860    14.9280 HW2           1 RES     
    4836 OW          25.0940    27.0240    29.6910 OW            1 RES     
    4837 HW1         24.2180    27.4150    29.9690 HW1           1 RES     
    4838 HW2         25.3520    27.3860    28.7950 HW2           1 RES     
    4839 OW          19.3680    17.4330    25.7060 OW            1 RES     
    4840 HW1         19.4270    17.3050    26.6950 HW1           1 RES     
    4841 HW2         19.1640    16.5570    25.2680 HW2           1 RES     
    4842 OW          17.2200    -1.1420    24.6420 OW            1 RES     
    4843 HW1         16.3180    -0.7220    24.5440 HW1           1 RES     
    4844 HW2         17.9270    -0.4400    24.5540 HW2           1 RES     
    4845 OW           6.8750    36.5620    26.4390 OW            1 RES     
    4846 HW1          5.9130    36.7460    26.2420 HW1           1 RES     
    4847 HW2          6.9560    35.6950    26.9300 HW2           1 RES     
    4848 OW           3.9990     0.6600    25.1550 OW            1 RES     
    4849 HW1          3.8810    -0.3310    25.0960 HW1           1 RES     
    4850 HW2          3.1980     1.0660    25.5950 HW2           1 RES     
    4851 OW           4.8810     1.3330    14.7580 OW            1 RES     
    4852 HW1          5.7630     1.2930    14.2910 HW1           1 RES     
    4853 HW2          4.9850     1.8140    15.6280 HW2           1 RES     
    4854 OW           1.6580    15.1990    16.4100 OW            1 RES     
    4855 HW1          1.3610    14.9170    17.3210 HW1           1 RES     
    4856 HW2          2.6000    15.5320    16.4530 HW2           1 RES     
    4857 OW          -0.9700    34.6840    15.3690 OW            1 RES     
    4858 HW1         -0.5330    34.6990    16.2680 HW1           1 RES     
    4859 HW2         -1.0030    33.7440    15.0300 HW2           1 RES     
    4860 OW          11.5310    26.2850    21.6770 OW            1 RES     
    4861 HW1         12.4110    25.8390    21.5190 HW1           1 RES     
    4862 HW2         10.7900    25.6360    21.4990 HW2           1 RES     
    4863 OW          35.2670    16.3170    18.3730 OW            1 RES     
    4864 HW1         36.1500    16.4790    18.8130 HW1           1 RES     
    4865 HW2         35.1560    15.3390    18.1970 HW2           1 RES     
    4866 OW          35.2590    26.4000    15.0380 OW            1 RES     
    4867 HW1         34.6660    25.9360    15.6960 HW1           1 RES     
    4868 HW2         35.5720    27.2670    15.4240 HW2           1 RES     
    4869 OW          29.3920     0.0750    25.6650 OW            1 RES     
    4870 HW1         30.0360     0.6290    26.1910 HW1           1 RES     
    4871 HW2         28.4650     0.4300    25.7890 HW2           1 RES     
    4872 OW          10.3920    16.3220    23.3420 OW            1 RES     
    4873 HW1          9.6130    15.7400    23.1120 HW1           1 RES     
    4874 HW2         10.1140    17.2820    23.3040 HW2           1 RES     
    4875 OW          35.6550    16.8500    30.2630 OW            1 RES     
    4876 HW1         34.9090    16.2070    30.0920 HW1           1 RES     
    4877 HW2         36.4990    16.3420    30.4420 HW2           1 RES     
    4878 OW          -0.2280    24.0190    19.9810 OW            1 RES     
    4879 HW1          0.5800    24.3820    20.4440 HW1           1 RES     
    4880 HW2         -0.9460    24.7160    19.9680 HW2           1 RES     
    4881 OW          22.5960     9.8060    28.8070 OW            1 RES     
    4882 HW1         23.2880     9.8120    28.0860 HW1           1 RES     
    4883 HW2         23.0130     9.5130    29.6670 HW2           1 RES     
    4884 OW           7.5510    31.0130    27.8340 OW            1 RES     
    4885 HW1          7.5800    30.0460    27.5850 HW1           1 RES     
    4886 HW2          8.4350    31.4370    27.6310 HW2           1 RES     
    4887 OW          24.1990    22.2750    21.9030 OW            1 RES     
    4888 HW1         24.9690    21.6570    21.7510 HW1           1 RES     
    4889 HW2         23.8010    22.0980    22.8030 HW2           1 RES     
    4890 OW           9.0960    25.0000    16.0970 OW            1 RES     
    4891 HW1          8.8700    24.3000    15.4200 HW1           1 RES     
    4892 HW2          8.9260    25.9060    15.7100 HW2           1 RES     
    4893 OW          14.7330    30.8650    29.9820 OW            1 RES     
    4894 HW1         15.5940    31.2970    29.7130 HW1           1 RES     
    4895 HW2         14.4320    30.2420    29.2600 HW2           1 RES     
    4896 OW           0.9610    28.7220    20.7950 OW            1 RES     
    4897 HW1          1.6900    29.2830    20.4050 HW1           1 RES     
    4898 HW2          0.5060    29.2270    21.5290 HW2           1 RES     
    4899 OW          38.5690    29.7060    14.9700 OW            1 RES     
    4900 HW1         39.1880    29.0600    15.4150 HW1           1 RES     
    4901 HW2         38.4480    29.4470    14.0110 HW2           1 RES     
    4902 OW          30.6180    37.6010     7.8850 OW            1 RES     
    4903 HW1         29.6510    37.7920     8.0500 HW1           1 RES     
    4904 HW2         30.7190    36.6720     7.5290 HW2           1 RES     
    4905 OW          27.1940     8.3510    27.1280 OW            1 RES     
    4906 HW1         27.9360     7.8500    26.6830 HW1           1 RES     
    4907 HW2         27.3790     8.4170    28.1090 HW2           1 RES     
    4908 OW          38.9890    22.0790    26.6100 OW            1 RES     
    4909 HW1         38.9360    21.0950    26.4420 HW1           1 RES     
    4910 HW2         38.7010    22.2740    27.5480 HW2           1 RES     
    4911 OW          10.8640     9.9200    27.1960 OW            1 RES     
    4912 HW1         10.2490    10.6420    26.8810 HW1           1 RES     
    4913 HW2         11.5040    10.2950    27.8670 HW2           1 RES     
    4914 OW           2.8600    33.4560    28.3850 OW            1 RES     
    4915 HW1          3.3870    33.8780    29.1210 HW1           1 RES     
    4916 HW2          2.0890    32.9500    28.7740 HW2           1 RES     
    4917 OW          16.7130     0.1370     8.4120 OW            1 RES     
    4918 HW1         17.6440     0.5000     8.3990 HW1           1 RES     
    4919 HW2         16.0600     0.8940     8.4250 HW2           1 RES     
    4920 OW          31.4180    23.5850    18.4200 OW            1 RES     
    4921 HW1         30.7210    23.2240    17.8020 HW1           1 RES     
    4922 HW2         31.3100    23.1710    19.3240 HW2           1 RES     
    4923 OW          25.8020    36.4200    16.4540 OW            1 RES     
    4924 HW1         26.4360    36.7220    17.1650 HW1           1 RES     
    4925 HW2         25.0060    37.0250    16.4390 HW2           1 RES     
    4926 OW          31.5240    24.3770    26.9200 OW            1 RES     
    4927 HW1         32.2090    24.6060    27.6100 HW1           1 RES     
    4928 HW2         31.5760    23.4000    26.7080 HW2           1 RES     
    4929 OW           0.8910    18.6460    26.7540 OW            1 RES     
    4930 HW1          0.5830    19.5570    26.4830 HW1           1 RES     
    4931 HW2          1.0810    18.1010    25.9370 HW2           1 RES     
    4932 OW           2.2290    29.9530    24.5110 OW            1 RES     
    4933 HW1          1.5740    30.7010    24.6110 HW1           1 RES     
    4934 HW2          3.1480    30.2820    24.7280 HW2           1 RES     
    4935 OW          22.2500     8.7340    23.7740 OW            1 RES     
    4936 HW1         23.1120     9.2180    23.9190 HW1           1 RES     
    4937 HW2         21.4850     9.3590    23.9350 HW2           1 RES     
    4938 OW          20.7390    37.7560    13.1420 OW            1 RES     
    4939 HW1         20.0490    38.2070    12.5760 HW1           1 RES     
    4940 HW2         21.1820    37.0320    12.6140 HW2           1 RES     
    4941 OW          34.5170     4.0450    20.8570 OW            1 RES     
    4942 HW1         34.3080     3.6240    21.7390 HW1           1 RES     
    4943 HW2         33.8760     4.7930    20.6830 HW2           1 RES     
    4944 OW          18.1230    27.8230    23.2910 OW            1 RES     
    4945 HW1         18.0140    26.8440    23.4610 HW1           1 RES     
    4946 HW2         18.1070    28.3160    24.1610 HW2           1 RES     
    4947 OW          23.3350    15.0890    13.8310 OW            1 RES     
    4948 HW1         22.8040    14.2430    13.8090 HW1           1 RES     
    4949 HW2         24.2780    14.8980    13.5600 HW2           1 RES     
    4950 OW           2.5290    10.0470    28.8840 OW            1 RES     
    4951 HW1          2.5670    10.8070    28.2360 HW1           1 RES     
    4952 HW2          3.2280     9.3710    28.6470 HW2           1 RES     
    4953 OW          17.5860    12.7680    20.8180 OW            1 RES     
    4954 HW1         17.6070    13.7540    20.6620 HW1           1 RES     
    4955 HW2         18.2130    12.5330    21.5610 HW2           1 RES     
    4956 OW          14.9660    12.1020    19.6670 OW            1 RES     
    4957 HW1         15.2910    12.4280    18.7800 HW1           1 RES     
    4958 HW2         14.0270    11.7720    19.5790 HW2           1 RES     
    4959 OW          23.6340    -1.3550    13.8900 OW            1 RES     
    4960 HW1         23.7640    -2.0470    13.1810 HW1           1 RES     
    4961 HW2         24.4030    -1.3850    14.5300 HW2           1 RES     
    4962 OW           9.1080    28.0460    22.7350 OW            1 RES     
    4963 HW1          9.7480    27.4120    22.3020 HW1           1 RES     
    4964 HW2          9.5830    28.8950    22.9650 HW2           1 RES     
    4965 OW          31.5320    19.4350    13.0880 OW            1 RES     
    4966 HW1         31.2240    20.3790    13.2050 HW1           1 RES     
    4967 HW2         30.7410    18.8390    12.9530 HW2           1 RES     
    4968 OW          18.2690    -2.0470    26.3510 OW            1 RES     
    4969 HW1         17.3160    -2.0350    26.6530 HW1           1 RES     
    4970 HW2         18.8130    -1.4530    26.9440 HW2           1 RES     
    4971 OW          32.2200    29.8020    10.3810 OW            1 RES     
    4972 HW1         32.8300    29.6850     9.5970 HW1           1 RES     
    4973 HW2         31.2800    29.9160    10.0580 HW2           1 RES     
    4974 OW          25.0250    30.8100    20.9080 OW            1 RES     
    4975 HW1         25.3260    31.7370    20.6880 HW1           1 RES     
    4976 HW2         25.8160    30.2540    21.1620 HW2           1 RES     
    4977 OW          27.3020     7.2800    10.7070 OW            1 RES     
    4978 HW1         26.7150     6.7370    11.3060 HW1           1 RES     
    4979 HW2         28.1420     7.5230    11.1920 HW2           1 RES     
    4980 OW          25.4400     0.9080    26.5240 OW            1 RES     
    4981 HW1         26.3410     0.5100    26.3580 HW1           1 RES     
    4982 HW2         25.3670     1.7820    26.0440 HW2           1 RES     
    4983 OW          15.5150     4.6650    30.4430 OW            1 RES     
    4984 HW1         14.5410     4.8850    30.4170 HW1           1 RES     
    4985 HW2         16.0120     5.2720    29.8220 HW2           1 RES     
    4986 OW          10.5070    25.2080     8.7440 OW            1 RES     
    4987 HW1         10.8070    26.1410     8.5490 HW1           1 RES     
    4988 HW2         11.2890    24.5870     8.6870 HW2           1 RES     
    4989 OW          -0.7590    18.5940    15.5090 OW            1 RES     
    4990 HW1         -0.5330    18.7190    14.5440 HW1           1 RES     
    4991 HW2         -0.7620    19.4820    15.9690 HW2           1 RES     
    4992 OW           1.4910    28.7830    11.3790 OW            1 RES     
    4993 HW1          1.4460    27.9160    11.8740 HW1           1 RES     
    4994 HW2          2.1220    28.6950    10.6080 HW2           1 RES     
    4995 OW          34.7060     8.0650    18.9630 OW            1 RES     
    4996 HW1         35.0160     7.1530    18.6980 HW1           1 RES     
    4997 HW2         35.2620     8.3980    19.7260 HW2           1 RES     
    4998 OW          29.8810     1.6750    21.0210 OW            1 RES     
    4999 HW1         30.3750     0.8160    21.1540 HW1           1 RES     
    5000 HW2         28.8970     1.5060    21.0810 HW2           1 RES     
    5001 OW          33.0300     6.2530    14.5090 OW            1 RES     
    5002 HW1         32.7250     5.3020    14.4560 HW1           1 RES     
    5003 HW2         34.0120     6.2990    14.3280 HW2           1 RES     
    5004 OW           6.5210    15.9600    22.8580 OW            1 RES     
    5005 HW1          5.7590    15.3140    22.8440 HW1           1 RES     
    5006 HW2          7.3860    15.4580    22.8590 HW2           1 RES     
    5007 OW           3.9930     0.9040    29.9090 OW            1 RES     
    5008 HW1          4.6990     1.3700    30.4410 HW1           1 RES     
    5009 HW2          3.6190     0.1460    30.4420 HW2           1 RES     
    5010 OW          33.3320    15.8090    17.0610 OW            1 RES     
    5011 HW1         33.0010    15.0510    17.6220 HW1           1 RES     
    5012 HW2         32.8790    16.6550    17.3410 HW2           1 RES     
    5013 OW          22.4260    35.6800    15.3600 OW            1 RES     
    5014 HW1         21.8910    36.3640    15.8550 HW1           1 RES     
    5015 HW2         23.4000    35.8870    15.4520 HW2           1 RES     
    5016 OW          22.7820    13.4770    30.3510 OW            1 RES     
    5017 HW1         21.8060    13.6740    30.4400 HW1           1 RES     
    5018 HW2         22.9340    12.4930    30.4410 HW2           1 RES     
    5019 OW          14.1280    30.2930    15.3860 OW            1 RES     
    5020 HW1         13.6470    29.4200    15.4540 HW1           1 RES     
    5021 HW2         13.4630    31.0410    15.3870 HW2           1 RES     
    5022 OW          35.9390    11.3050    18.6590 OW            1 RES     
    5023 HW1         35.4850    10.6680    19.2810 HW1           1 RES     
    5024 HW2         36.5690    10.8020    18.0670 HW2           1 RES     
    5025 OW          23.9300    25.7320    25.8990 OW            1 RES     
    5026 HW1         22.9640    25.9860    25.9340 HW1           1 RES     
    5027 HW2         24.0140    24.7360    25.8930 HW2           1 RES     
    5028 OW          28.1780     3.0440    27.6780 OW            1 RES     
    5029 HW1         27.4640     2.6430    28.2520 HW1           1 RES     
    5030 HW2         28.4840     2.3700    27.0050 HW2           1 RES     
    5031 OW          38.3030    18.8460    24.0300 OW            1 RES     
    5032 HW1         38.1120    17.8650    24.0610 HW1           1 RES     
    5033 HW2         39.1860    19.0290    24.4610 HW2           1 RES     
    5034 OW          25.6790    -1.2650    19.9460 OW            1 RES     
    5035 HW1         26.4950    -1.8380    19.8850 HW1           1 RES     
    5036 HW2         25.9500    -0.3120    20.0850 HW2           1 RES     
    5037 OW          20.7840    -1.0620    24.0300 OW            1 RES     
    5038 HW1         19.8730    -0.9200    23.6460 HW1           1 RES     
    5039 HW2         21.1740    -0.1800    24.2980 HW2           1 RES     
    5040 OW          36.7070    14.0530     9.9970 OW            1 RES     
    5041 HW1         35.9570    13.5110     9.6190 HW1           1 RES     
    5042 HW2         36.4730    14.3480    10.9230 HW2           1 RES     
    5043 OW          30.1230     4.1590    16.9920 OW            1 RES     
    5044 HW1         30.0010     3.7670    17.9040 HW1           1 RES     
    5045 HW2         29.3140     4.6940    16.7480 HW2           1 RES     
    5046 OW          25.4110    30.7550    26.4930 OW            1 RES     
    5047 HW1         25.6280    31.2410    27.3390 HW1           1 RES     
    5048 HW2         25.3580    31.4070    25.7370 HW2           1 RES     
    5049 OW          28.6100    12.6600    12.2750 OW            1 RES     
    5050 HW1         27.8940    12.2880    11.6860 HW1           1 RES     
    5051 HW2         28.4240    12.4110    13.2260 HW2           1 RES     
    5052 OW          37.2710     9.1870    10.6270 OW            1 RES     
    5053 HW1         36.6130     8.4350    10.6390 HW1           1 RES     
    5054 HW2         36.7820    10.0590    10.6440 HW2           1 RES     
    5055 OW          11.5260    -0.0460    26.6370 OW            1 RES     
    5056 HW1         11.7070    -0.5720    27.4680 HW1           1 RES     
    5057 HW2         11.5150     0.9300    26.8560 HW2           1 RES     
    5058 OW          39.0670     3.6760     8.1650 OW            1 RES     
    5059 HW1         39.0500     3.7480     9.1620 HW1           1 RES     
    5060 HW2         39.0200     4.5900     7.7630 HW2           1 RES     
    5061 OW          37.4290    25.9690    24.1470 OW            1 RES     
    5062 HW1         37.2580    25.4890    23.2870 HW1           1 RES     
    5063 HW2         37.0790    25.4240    24.9090 HW2           1 RES     
    5064 OW          14.8430     8.5390    27.7370 OW            1 RES     
    5065 HW1         14.8150     7.6350    27.3120 HW1           1 RES     
    5066 HW2         14.7420     8.4450    28.7280 HW2           1 RES     
    5067 OW          29.7670    13.3020    18.2490 OW            1 RES     
    5068 HW1         30.5870    12.7320    18.2150 HW1           1 RES     
    5069 HW2         28.9620    12.7220    18.3730 HW2           1 RES     
    5070 OW          17.5420    15.2940    12.2430 OW            1 RES     
    5071 HW1         17.8190    14.3430    12.3770 HW1           1 RES     
    5072 HW2         17.5630    15.5140    11.2680 HW2           1 RES     
    5073 OW          25.5830    30.8340    10.8560 OW            1 RES     
    5074 HW1         25.8580    31.2580     9.9940 HW1           1 RES     
    5075 HW2         26.3020    30.9670    11.5380 HW2           1 RES     
    5076 OW          17.0770     5.3250    14.6340 OW            1 RES     
    5077 HW1         16.7730     5.9640    13.9280 HW1           1 RES     
    5078 HW2         16.3810     5.2620    15.3490 HW2           1 RES     
    5079 OW          -0.1650    33.1740    19.7580 OW            1 RES     
    5080 HW1          0.7560    33.0980    19.3780 HW1           1 RES     
    5081 HW2         -0.8380    33.0360    19.0320 HW2           1 RES     
    5082 OW          26.6910    35.9950    19.3150 OW            1 RES     
    5083 HW1         27.0570    36.7590    19.8460 HW1           1 RES     
    5084 HW2         27.1230    35.1440    19.6140 HW2           1 RES     
    5085 OW           0.2110    11.8000    23.7490 OW            1 RES     
    5086 HW1          0.7200    12.6080    23.4560 HW1           1 RES     
    5087 HW2          0.1610    11.1450    22.9950 HW2           1 RES     
    5088 OW          18.2430    10.2210    19.2440 OW            1 RES     
    5089 HW1         17.6720    10.7390    18.6080 HW1           1 RES     
    5090 HW2         17.8430    10.2580    20.1590 HW2           1 RES     
    5091 OW          33.4370     4.0850    16.1450 OW            1 RES     
    5092 HW1         34.3650     4.3610    16.3930 HW1           1 RES     
    5093 HW2         33.3240     3.1050    16.3110 HW2           1 RES     
    5094 OW           9.8500    19.5540    14.7440 OW            1 RES     
    5095 HW1         10.6230    18.9280    14.8410 HW1           1 RES     
    5096 HW2          9.9020    20.0130    13.8570 HW2           1 RES     
    5097 OW          27.3270    22.0890    20.6850 OW            1 RES     
    5098 HW1         26.7810    22.5950    20.0180 HW1           1 RES     
    5099 HW2         27.0960    21.1170    20.6360 HW2           1 RES     
    5100 OW          25.0590    10.8310    29.4250 OW            1 RES     
    5101 HW1         24.5650    10.9480    30.2850 HW1           1 RES     
    5102 HW2         25.1660     9.8560    29.2310 HW2           1 RES     
    5103 OW          19.1450    36.2010    12.5890 OW            1 RES     
    5104 HW1         18.5560    35.8730    11.8510 HW1           1 RES     
    5105 HW2         18.7900    35.8800    13.4670 HW2           1 RES     
    5106 OW           1.4740    36.9290    17.6090 OW            1 RES     
    5107 HW1          2.4100    37.2130    17.4020 HW1           1 RES     
    5108 HW2          0.8900    37.7370    17.6850 HW2           1 RES     
    5109 OW           5.8560    25.4490    23.9770 OW            1 RES     
    5110 HW1          5.7330    25.1070    23.0460 HW1           1 RES     
    5111 HW2          6.7870    25.7980    24.0840 HW2           1 RES     
    5112 OW          10.0600     7.0440     9.0100 OW            1 RES     
    5113 HW1         10.2470     6.9110     8.0380 HW1           1 RES     
    5114 HW2         10.9210     7.1700     9.5030 HW2           1 RES     
    5115 OW          33.2370    -0.1590    12.5080 OW            1 RES     
    5116 HW1         33.4380    -1.1350    12.4300 HW1           1 RES     
    5117 HW2         32.6420    -0.0030    13.2970 HW2           1 RES     
    5118 OW          30.3210     8.3840    24.1210 OW            1 RES     
    5119 HW1         31.1860     7.9070    23.9720 HW1           1 RES     
    5120 HW2         30.5010     9.2860    24.5160 HW2           1 RES     
    5121 OW          36.9030    32.3160    15.0770 OW            1 RES     
    5122 HW1         36.9430    31.3640    15.3780 HW1           1 RES     
    5123 HW2         36.9160    32.9190    15.8740 HW2           1 RES     
    5124 OW          18.0380    27.0370    12.1470 OW            1 RES     
    5125 HW1         18.8630    27.2190    11.6130 HW1           1 RES     
    5126 HW2         17.8490    27.8160    12.7460 HW2           1 RES     
    5127 OW           6.6230    31.7850    23.4650 OW            1 RES     
    5128 HW1          5.8360    31.9080    24.0690 HW1           1 RES     
    5129 HW2          6.6700    32.5480    22.8190 HW2           1 RES     
    5130 OW          33.0030    14.4400    15.3710 OW            1 RES     
    5131 HW1         32.3080    14.4850    14.6550 HW1           1 RES     
    5132 HW2         33.7040    13.7750    15.1140 HW2           1 RES     
    5133 OW           4.4020    30.1440    11.3760 OW            1 RES     
    5134 HW1          4.5080    29.1500    11.3470 HW1           1 RES     
    5135 HW2          3.4770    30.3730    11.6790 HW2           1 RES     
    5136 OW          38.2090    15.4180     9.0810 OW            1 RES     
    5137 HW1         39.1880    15.5980     9.1770 HW1           1 RES     
    5138 HW2         37.6990    15.9970     9.7180 HW2           1 RES     
    5139 OW          24.1840    33.7950    13.9320 OW            1 RES     
    5140 HW1         23.3950    33.8840    14.5390 HW1           1 RES     
    5141 HW2         24.5930    32.8900    14.0450 HW2           1 RES     
    5142 OW          14.6270    20.3820    27.2840 OW            1 RES     
    5143 HW1         15.2900    20.9330    27.7900 HW1           1 RES     
    5144 HW2         15.0790    19.5660    26.9220 HW2           1 RES     
    5145 OW          29.2680    31.3570    12.8810 OW            1 RES     
    5146 HW1         28.9940    32.2930    12.6640 HW1           1 RES     
    5147 HW2         30.0580    31.1030    12.3230 HW2           1 RES     
    5148 OW           4.4280    12.8460    24.4230 OW            1 RES     
    5149 HW1          3.4860    12.7410    24.7400 HW1           1 RES     
    5150 HW2          4.5280    13.7270    23.9600 HW2           1 RES     
    5151 OW          30.5120    31.3170    22.0050 OW            1 RES     
    5152 HW1         30.7720    30.4280    21.6300 HW1           1 RES     
    5153 HW2         29.5230    31.3410    22.1540 HW2           1 RES     
    5154 OW          30.2520    31.4090    15.8790 OW            1 RES     
    5155 HW1         31.1750    31.7080    15.6420 HW1           1 RES     
    5156 HW2         30.1500    31.3970    16.8740 HW2           1 RES     
    5157 OW          39.0140    26.1740    22.1050 OW            1 RES     
    5158 HW1         39.1830    25.2020    22.2620 HW1           1 RES     
    5159 HW2         39.1530    26.6800    22.9570 HW2           1 RES     
    5160 OW          29.2120    -1.6550    20.1400 OW            1 RES     
    5161 HW1         30.1860    -1.8780    20.1440 HW1           1 RES     
    5162 HW2         29.0960    -0.6620    20.1390 HW2           1 RES     
    5163 OW          31.2900    27.0240    12.9460 OW            1 RES     
    5164 HW1         32.0880    27.4680    12.5420 HW1           1 RES     
    5165 HW2         31.5570    26.1370    13.3250 HW2           1 RES     
    5166 OW          27.0380     9.3890    21.1700 OW            1 RES     
    5167 HW1         26.1240     9.1210    20.8670 HW1           1 RES     
    5168 HW2         26.9950    10.2880    21.6060 HW2           1 RES     
    5169 OW          14.7390     4.1230    20.0130 OW            1 RES     
    5170 HW1         13.7860     4.4240    20.0480 HW1           1 RES     
    5171 HW2         14.7840     3.2040    19.6210 HW2           1 RES     
    5172 OW          34.0280    21.4750    12.0100 OW            1 RES     
    5173 HW1         33.4510    20.8050    11.5440 HW1           1 RES     
    5174 HW2         34.7280    21.0000    12.5430 HW2           1 RES     
    5175 OW          -0.7950    24.6730    28.9270 OW            1 RES     
    5176 HW1          0.0960    24.3790    29.2710 HW1           1 RES     
    5177 HW2         -1.0040    24.1840    28.0800 HW2           1 RES     
    5178 OW           3.9370    19.0550    19.9190 OW            1 RES     
    5179 HW1          3.8780    19.7030    19.1600 HW1           1 RES     
    5180 HW2          4.7220    18.4520    19.7830 HW2           1 RES     
    5181 OW           1.8460     4.0880    21.9660 OW            1 RES     
    5182 HW1          2.3700     3.3240    22.3400 HW1           1 RES     
    5183 HW2          2.4260     4.6210    21.3500 HW2           1 RES     
    5184 OW          30.3390     5.8090    23.2220 OW            1 RES     
    5185 HW1         30.5600     4.8920    22.8930 HW1           1 RES     
    5186 HW2         29.9530     6.3490    22.4730 HW2           1 RES     
    5187 OW          38.8580    15.0490    14.5630 OW            1 RES     
    5188 HW1         38.2520    15.1860    15.3460 HW1           1 RES     
    5189 HW2         39.1880    15.9360    14.2380 HW2           1 RES     
    5190 OW          24.8390    16.9020    30.4420 OW            1 RES     
    5191 HW1         23.9090    16.5370    30.4410 HW1           1 RES     
    5192 HW2         24.8060    17.9020    30.4420 HW2           1 RES     
    5193 OW          33.3180    12.9890    12.8300 OW            1 RES     
    5194 HW1         32.3570    12.7210    12.7740 HW1           1 RES     
    5195 HW2         33.3890    13.9860    12.8050 HW2           1 RES     
    5196 OW           7.3610    21.4060    11.2820 OW            1 RES     
    5197 HW1          6.5400    21.3350    10.7170 HW1           1 RES     
    5198 HW2          8.1110    20.9090    10.8440 HW2           1 RES     
    5199 OW           7.2090    17.7820    24.2500 OW            1 RES     
    5200 HW1          7.2040    18.3340    25.0830 HW1           1 RES     
    5201 HW2          6.4110    18.0110    23.6930 HW2           1 RES     
    5202 OW          25.9920    33.4790     9.1090 OW            1 RES     
    5203 HW1         26.4750    34.3370     8.9400 HW1           1 RES     
    5204 HW2         25.0400    33.6730     9.3440 HW2           1 RES     
    5205 OW          38.5110    32.4250    11.9370 OW            1 RES     
    5206 HW1         38.2570    33.3910    11.9260 HW1           1 RES     
    5207 HW2         37.7140    31.8670    11.7060 HW2           1 RES     
    5208 OW          12.4750    27.9520    23.5770 OW            1 RES     
    5209 HW1         11.4760    27.9250    23.5820 HW1           1 RES     
    5210 HW2         12.8340    27.0180    23.5650 HW2           1 RES     
    5211 OW          34.3110     8.6660    22.3800 OW            1 RES     
    5212 HW1         34.0730     7.9060    22.9840 HW1           1 RES     
    5213 HW2         35.3050     8.7230    22.2910 HW2           1 RES     
    5214 OW           9.3690    32.1970     8.6810 OW            1 RES     
    5215 HW1          9.0980    31.5190     7.9980 HW1           1 RES     
    5216 HW2          9.7360    31.7320     9.4860 HW2           1 RES     
    5217 OW           2.2300    21.2140    28.4560 OW            1 RES     
    5218 HW1          3.1650    21.5660    28.4230 HW1           1 RES     
    5219 HW2          2.1060    20.5290    27.7380 HW2           1 RES     
    5220 OW           6.7370    18.4110    30.2150 OW            1 RES     
    5221 HW1          6.7660    17.4380    30.4410 HW1           1 RES     
    5222 HW2          6.6260    18.5210    29.2270 HW2           1 RES     
    5223 OW          22.5780    29.4170    25.8010 OW            1 RES     
    5224 HW1         22.6300    28.5130    25.3800 HW1           1 RES     
    5225 HW2         23.5020    29.7750    25.9390 HW2           1 RES     
    5226 OW          -0.4650    21.5490    17.9490 OW            1 RES     
    5227 HW1          0.2060    22.2380    18.2210 HW1           1 RES     
    5228 HW2         -1.0050    21.2760    18.7460 HW2           1 RES     
    5229 OW          36.5880    36.8730    22.7320 OW            1 RES     
    5230 HW1         36.1170    36.5200    23.5390 HW1           1 RES     
    5231 HW2         35.9170    37.2320    22.0830 HW2           1 RES     
    5232 OW          10.7530    30.2190    11.1800 OW            1 RES     
    5233 HW1         11.1110    31.1370    11.3450 HW1           1 RES     
    5234 HW2         11.2260    29.8110    10.3990 HW2           1 RES     
    5235 OW           5.1540    27.2340    25.5120 OW            1 RES     
    5236 HW1          6.0800    26.9870    25.7960 HW1           1 RES     
    5237 HW2          4.5810    26.4150    25.4880 HW2           1 RES     
    5238 OW          25.1640    20.4100    12.4310 OW            1 RES     
    5239 HW1         25.7590    20.9710    11.8560 HW1           1 RES     
    5240 HW2         25.7210    19.7810    12.9740 HW2           1 RES     
    5241 OW           5.5600    28.6130    28.7540 OW            1 RES     
    5242 HW1          6.5440    28.6460    28.9290 HW1           1 RES     
    5243 HW2          5.3980    28.2910    27.8210 HW2           1 RES     
    5244 OW          -1.0050    16.2380    26.5070 OW            1 RES     
    5245 HW1         -0.8850    17.2240    26.3950 HW1           1 RES     
    5246 HW2         -0.1110    15.8030    26.6220 HW2           1 RES     
    5247 OW          37.4400     2.4950    17.3590 OW            1 RES     
    5248 HW1         38.4330     2.5930    17.3960 HW1           1 RES     
    5249 HW2         37.1070     2.7910    16.4630 HW2           1 RES     
    5250 OW           3.7750    23.2830    30.2500 OW            1 RES     
    5251 HW1          3.2790    22.4370    30.4420 HW1           1 RES     
    5252 HW2          3.4760    23.6540    29.3710 HW2           1 RES     
    5253 OW          38.7740    20.0040    16.2540 OW            1 RES     
    5254 HW1         38.5460    20.7970    16.8170 HW1           1 RES     
    5255 HW2         37.9330    19.5840    15.9110 HW2           1 RES     
    5256 OW          12.6890    15.8230     7.4380 OW            1 RES     
    5257 HW1         13.6480    15.5960     7.6090 HW1           1 RES     
    5258 HW2         12.1910    14.9950     7.1780 HW2           1 RES     
    5259 OW           8.1020    18.5390    22.3880 OW            1 RES     
    5260 HW1          8.3050    17.6130    22.0720 HW1           1 RES     
    5261 HW2          7.7050    19.0680    21.6370 HW2           1 RES     
    5262 OW          33.0130    33.8630    10.7990 OW            1 RES     
    5263 HW1         32.8420    33.0670    11.3800 HW1           1 RES     
    5264 HW2         32.8950    34.6990    11.3350 HW2           1 RES     
    5265 OW          17.6160    14.9450    23.2790 OW            1 RES     
    5266 HW1         18.3700    14.8390    23.9270 HW1           1 RES     
    5267 HW2         17.3640    14.0500    22.9110 HW2           1 RES     
    5268 OW          36.7580    37.8110    17.2420 OW            1 RES     
    5269 HW1         37.3890    37.8290    16.4670 HW1           1 RES     
    5270 HW2         35.8200    37.9170    16.9110 HW2           1 RES     
    5271 OW           4.5020    17.1500    21.5430 OW            1 RES     
    5272 HW1          4.5300    17.1140    22.5410 HW1           1 RES     
    5273 HW2          5.3790    16.8400    21.1730 HW2           1 RES     
    5274 OW          13.5940    13.8420    18.9740 OW            1 RES     
    5275 HW1         12.6120    13.8140    18.7900 HW1           1 RES     
    5276 HW2         13.9890    14.6600    18.5540 HW2           1 RES     
    5277 OW          18.4920    14.1370    27.0370 OW            1 RES     
    5278 HW1         19.0950    14.3530    26.2710 HW1           1 RES     
    5279 HW2         18.4880    13.1480    27.1910 HW2           1 RES     
    5280 OW          19.2490    37.5910    29.7600 OW            1 RES     
    5281 HW1         18.4340    37.9250    29.2890 HW1           1 RES     
    5282 HW2         19.9260    38.3250    29.8200 HW2           1 RES     
    5283 OW           5.7830    30.0210    13.1260 OW            1 RES     
    5284 HW1          5.8580    30.9970    12.9240 HW1           1 RES     
    5285 HW2          6.6490    29.5680    12.9100 HW2           1 RES     
    5286 OW           6.6390    12.9080    17.7540 OW            1 RES     
    5287 HW1          6.4540    13.7610    18.2400 HW1           1 RES     
    5288 HW2          7.3420    13.0640    17.0610 HW2           1 RES     
    5289 OW          22.0820    36.6390    28.4840 OW            1 RES     
    5290 HW1         22.9960    36.8300    28.8420 HW1           1 RES     
    5291 HW2         22.1550    36.0570    27.6740 HW2           1 RES     
    5292 OW          13.2570     8.8340    23.2150 OW            1 RES     
    5293 HW1         12.9740     7.9760    23.6440 HW1           1 RES     
    5294 HW2         12.4800     9.2370    22.7310 HW2           1 RES     
    5295 OW          23.4510    20.9400    19.0420 OW            1 RES     
    5296 HW1         24.0130    21.0690    19.8580 HW1           1 RES     
    5297 HW2         23.7090    21.6140    18.3490 HW2           1 RES     
    5298 OW          37.7710     7.4510    19.9170 OW            1 RES     
    5299 HW1         37.4420     8.3890    20.0230 HW1           1 RES     
    5300 HW2         37.0860     6.9110    19.4280 HW2           1 RES     
    5301 OW          15.8460    28.2710    26.9080 OW            1 RES     
    5302 HW1         15.6840    27.2850    26.9130 HW1           1 RES     
    5303 HW2         14.9710    28.7530    26.9530 HW2           1 RES     
    5304 OW          15.2390    27.6720    23.9030 OW            1 RES     
    5305 HW1         15.9390    28.3770    23.7940 HW1           1 RES     
    5306 HW2         15.6730    26.7720    23.9300 HW2           1 RES     
    5307 OW          23.6470     0.0470    11.1030 OW            1 RES     
    5308 HW1         24.2330    -0.5930    11.5980 HW1           1 RES     
    5309 HW2         23.3410    -0.3720    10.2480 HW2           1 RES     
    5310 OW           8.3280    27.7010    25.1150 OW            1 RES     
    5311 HW1          7.5780    27.9490    24.5030 HW1           1 RES     
    5312 HW2          8.5620    26.7370    24.9840 HW2           1 RES     
    5313 OW          35.1230    22.5470    30.3930 OW            1 RES     
    5314 HW1         36.1210    22.5790    30.4430 HW1           1 RES     
    5315 HW2         34.7810    23.3960    29.9910 HW2           1 RES     
    5316 OW          25.3230    25.9960    18.2210 OW            1 RES     
    5317 HW1         25.4870    25.5020    19.0750 HW1           1 RES     
    5318 HW2         24.3440    26.1740    18.1220 HW2           1 RES     
    5319 OW          21.5530    37.0070    20.3460 OW            1 RES     
    5320 HW1         20.6430    36.6410    20.5340 HW1           1 RES     
    5321 HW2         21.4760    37.7920    19.7300 HW2           1 RES     
    5322 OW          38.0680    -0.2030    29.9180 OW            1 RES     
    5323 HW1         37.6130     0.5980    29.5290 HW1           1 RES     
    5324 HW2         38.8980     0.0850    30.3960 HW2           1 RES     
    5325 OW          -0.9110    18.8530     7.1590 OW            1 RES     
    5326 HW1          0.0400    18.7590     6.8680 HW1           1 RES     
    5327 HW2         -0.9470    18.9760     8.1510 HW2           1 RES     
    5328 OW          19.8340    11.4080    27.3090 OW            1 RES     
    5329 HW1         19.6970    10.9220    28.1710 HW1           1 RES     
    5330 HW2         20.4200    10.8640    26.7080 HW2           1 RES     
    5331 OW          15.2350    26.6600    21.4940 OW            1 RES     
    5332 HW1         15.5130    27.6150    21.5890 HW1           1 RES     
    5333 HW2         15.9480    26.0650    21.8650 HW2           1 RES     
    5334 OW           5.8220    -0.9920    29.8650 OW            1 RES     
    5335 HW1          5.1420    -1.4420    30.4430 HW1           1 RES     
    5336 HW2          6.7290    -1.3590    30.0700 HW2           1 RES     
    5337 OW          33.0800    27.4760    27.9040 OW            1 RES     
    5338 HW1         32.1260    27.6310    27.6510 HW1           1 RES     
    5339 HW2         33.2290    26.5010    28.0660 HW2           1 RES     
    5340 OW          23.4550    26.6990    22.1850 OW            1 RES     
    5341 HW1         22.7380    27.1200    22.7400 HW1           1 RES     
    5342 HW2         23.1460    26.6320    21.2360 HW2           1 RES     
    5343 OW           9.4420     1.1890    12.2890 OW            1 RES     
    5344 HW1         10.1180     1.3280    13.0120 HW1           1 RES     
    5345 HW2          8.6100     1.6980    12.5090 HW2           1 RES     
    5346 OW          35.0320    24.2960    12.1200 OW            1 RES     
    5347 HW1         35.9880    24.1520    12.3730 HW1           1 RES     
    5348 HW2         34.7110    23.5210    11.5750 HW2           1 RES     
    5349 OW          16.3250     8.2370    21.9270 OW            1 RES     
    5350 HW1         17.2580     7.8820    21.9010 HW1           1 RES     
    5351 HW2         16.3470     9.2370    21.9100 HW2           1 RES     
    5352 OW          32.7250    15.6400    21.5590 OW            1 RES     
    5353 HW1         31.9930    16.2190    21.9180 HW1           1 RES     
    5354 HW2         32.4830    15.3260    20.6410 HW2           1 RES     
    5355 OW          17.8430    34.2820    27.8170 OW            1 RES     
    5356 HW1         17.6300    33.3120    27.7030 HW1           1 RES     
    5357 HW2         17.7470    34.7510    26.9390 HW2           1 RES     
    5358 OW          16.8150     3.7250    16.8620 OW            1 RES     
    5359 HW1         17.5250     3.4270    16.2260 HW1           1 RES     
    5360 HW2         16.4750     2.9370    17.3770 HW2           1 RES     
    5361 OW          34.9800    17.1000    22.2910 OW            1 RES     
    5362 HW1         34.3650    17.8300    22.5870 HW1           1 RES     
    5363 HW2         35.9160    17.4500    22.2480 HW2           1 RES     
    5364 OW          15.0000    34.2050    19.9130 OW            1 RES     
    5365 HW1         15.4530    34.3500    20.7920 HW1           1 RES     
    5366 HW2         15.5320    33.5590    19.3650 HW2           1 RES     
    5367 OW           7.7990    14.4550    27.7810 OW            1 RES     
    5368 HW1          6.8390    14.7310    27.7780 HW1           1 RES     
    5369 HW2          7.8590    13.4570    27.7950 HW2           1 RES     
    5370 OW          13.1100    33.1100    20.1800 OW            1 RES     
    5371 HW1         12.5920    32.6060    20.8710 HW1           1 RES     
    5372 HW2         12.6960    34.0100    20.0430 HW2           1 RES     
    5373 OW           4.3330    28.3940    17.0800 OW            1 RES     
    5374 HW1          4.1270    27.9170    16.2270 HW1           1 RES     
    5375 HW2          4.4350    29.3720    16.9000 HW2           1 RES     
    5376 OW          29.4860     2.7700     9.7060 OW            1 RES     
    5377 HW1         29.9000     2.7530    10.6160 HW1           1 RES     
    5378 HW2         28.5200     2.5190     9.7740 HW2           1 RES     
    5379 OW          18.7870    13.2440     8.4510 OW            1 RES     
    5380 HW1         18.4700    13.3710     9.3900 HW1           1 RES     
    5381 HW2         18.0150    13.3340     7.8230 HW2           1 RES     
    5382 OW          11.8250    21.2460    10.2860 OW            1 RES     
    5383 HW1         12.6320    20.7230    10.0150 HW1           1 RES     
    5384 HW2         11.0390    20.6310    10.3610 HW2           1 RES     
    5385 OW          35.2520    20.6520    19.3310 OW            1 RES     
    5386 HW1         35.5520    21.5650    19.0570 HW1           1 RES     
    5387 HW2         34.2550    20.5970    19.2720 HW2           1 RES     
    5388 OW          24.4270    36.3350     9.3920 OW            1 RES     
    5389 HW1         24.2330    35.5980    10.0390 HW1           1 RES     
    5390 HW2         25.0650    36.0080     8.6950 HW2           1 RES     
    5391 OW           3.6390     1.8520    20.3380 OW            1 RES     
    5392 HW1          2.9380     1.1410    20.2940 HW1           1 RES     
    5393 HW2          3.2000     2.7500    20.3830 HW2           1 RES     
    5394 OW           2.4020    17.7380    14.2390 OW            1 RES     
    5395 HW1          2.8840    18.0520    13.4210 HW1           1 RES     
    5396 HW2          1.9410    18.5130    14.6720 HW2           1 RES     
    5397 OW          14.0410    10.4130    21.7220 OW            1 RES     
    5398 HW1         13.1950    10.8330    21.3960 HW1           1 RES     
    5399 HW2         14.4780     9.9170    20.9710 HW2           1 RES     
    5400 OW          10.1580    33.3270    20.3630 OW            1 RES     
    5401 HW1         10.7290    32.8200    19.7180 HW1           1 RES     
    5402 HW2         10.5610    34.2270    20.5300 HW2           1 RES     
    5403 OW          -0.1320    20.3900    22.3460 OW            1 RES     
    5404 HW1          0.4500    19.7070    22.7850 HW1           1 RES     
    5405 HW2         -1.0050    20.4460    22.8320 HW2           1 RES     
    5406 OW          17.1150    34.2280    22.5100 OW            1 RES     
    5407 HW1         17.9570    33.9470    22.0490 HW1           1 RES     
    5408 HW2         16.4730    33.4620    22.5270 HW2           1 RES     
    5409 OW          34.2520    31.9860    19.2050 OW            1 RES     
    5410 HW1         33.6420    32.6470    18.7690 HW1           1 RES     
    5411 HW2         34.1050    31.0820    18.8040 HW2           1 RES     
    5412 OW          17.9800     2.1750    19.7460 OW            1 RES     
    5413 HW1         17.0530     2.3490    19.4160 HW1           1 RES     
    5414 HW2         18.4140     3.0410    19.9940 HW2           1 RES     
    5415 OW          36.0890    23.3640    16.7720 OW            1 RES     
    5416 HW1         36.8250    23.8490    16.3010 HW1           1 RES     
    5417 HW2         36.4800    22.6820    17.3900 HW2           1 RES     
    5418 OW          14.4350    14.0740    29.3880 OW            1 RES     
    5419 HW1         14.8290    13.8380    28.5010 HW1           1 RES     
    5420 HW2         14.2740    13.2390    29.9150 HW2           1 RES     
    5421 OW           8.9970    31.7080    11.5590 OW            1 RES     
    5422 HW1          8.1850    31.1450    11.7040 HW1           1 RES     
    5423 HW2          8.9200    32.5490    12.0950 HW2           1 RES     
    5424 OW          10.3390    38.1390    25.7920 OW            1 RES     
    5425 HW1         11.0580    37.4550    25.9100 HW1           1 RES     
    5426 HW2         10.2270    38.3410    24.8190 HW2           1 RES     
    5427 OW          26.9480    14.9260    30.3450 OW            1 RES     
    5428 HW1         27.3460    15.8410    30.2990 HW1           1 RES     
    5429 HW2         25.9550    14.9980    30.4380 HW2           1 RES     
    5430 OW          31.8150     6.9860    28.4610 OW            1 RES     
    5431 HW1         32.6770     7.0820    27.9640 HW1           1 RES     
    5432 HW2         31.2390     7.7850    28.2860 HW2           1 RES     
    5433 OW          39.0860    13.0010    28.7270 OW            1 RES     
    5434 HW1         38.8060    12.7810    29.6610 HW1           1 RES     
    5435 HW2         39.1880    12.1560    28.2020 HW2           1 RES     
    5436 OW          28.1960    18.1250    12.1220 OW            1 RES     
    5437 HW1         27.2530    18.4220    11.9730 HW1           1 RES     
    5438 HW2         28.8220    18.8660    11.8760 HW2           1 RES     
    5439 OW          37.8100    20.3970     8.1470 OW            1 RES     
    5440 HW1         37.9870    20.8910     7.2970 HW1           1 RES     
    5441 HW2         36.8910    20.0020     8.1190 HW2           1 RES     
    5442 OW          29.3270    18.6690    18.1510 OW            1 RES     
    5443 HW1         30.3120    18.6670    17.9850 HW1           1 RES     
    5444 HW2         28.9880    19.6100    18.1360 HW2           1 RES     
    5445 OW           8.3200    31.0870    15.0230 OW            1 RES     
    5446 HW1          7.6460    31.3020    15.7300 HW1           1 RES     
    5447 HW2          7.8780    31.0990    14.1260 HW2           1 RES     
    5448 OW          -0.4070    27.5770    17.4810 OW            1 RES     
    5449 HW1         -0.7840    26.8580    16.8970 HW1           1 RES     
    5450 HW2         -0.1990    28.3820    16.9260 HW2           1 RES     
    5451 OW          20.2370    37.4090    26.6740 OW            1 RES     
    5452 HW1         21.1130    37.3160    26.2020 HW1           1 RES     
    5453 HW2         20.2120    38.2820    27.1620 HW2           1 RES     
    5454 OW          13.0580    29.7810    24.7020 OW            1 RES     
    5455 HW1         13.2210    30.7650    24.6390 HW1           1 RES     
    5456 HW2         13.9250    29.2920    24.6050 HW2           1 RES     
    5457 OW          13.2920     0.4930    30.2230 OW            1 RES     
    5458 HW1         12.7050    -0.3140    30.2680 HW1           1 RES     
    5459 HW2         12.7480     1.2860    29.9480 HW2           1 RES     
    5460 OW          24.0450    30.5500     8.9690 OW            1 RES     
    5461 HW1         24.0530    30.0440     8.1070 HW1           1 RES     
    5462 HW2         23.2050    31.0900     9.0310 HW2           1 RES     
    5463 OW          25.9160     7.5410    14.0210 OW            1 RES     
    5464 HW1         26.7850     7.5540    14.5130 HW1           1 RES     
    5465 HW2         25.7400     8.4450    13.6310 HW2           1 RES     
    5466 OW           4.2570    27.4380    23.3620 OW            1 RES     
    5467 HW1          4.8040    28.2430    23.5890 HW1           1 RES     
    5468 HW2          3.3010    27.7070    23.2390 HW2           1 RES     
    5469 OW          28.0850    11.5130     7.6590 OW            1 RES     
    5470 HW1         28.7650    11.0770     7.0700 HW1           1 RES     
    5471 HW2         27.8820    12.4290     7.3130 HW2           1 RES     
    5472 OW          34.1200    33.9100    26.6320 OW            1 RES     
    5473 HW1         34.7640    33.7110    27.3700 HW1           1 RES     
    5474 HW2         34.4150    34.7310    26.1440 HW2           1 RES     
    5475 OW          34.1570    32.0580    28.7270 OW            1 RES     
    5476 HW1         34.2410    31.1000    28.4530 HW1           1 RES     
    5477 HW2         33.7240    32.1110    29.6270 HW2           1 RES     
    5478 OW           9.3050     3.5580    10.0820 OW            1 RES     
    5479 HW1          9.8030     4.4250    10.0740 HW1           1 RES     
    5480 HW2          8.3210     3.7380    10.0690 HW2           1 RES     
    5481 OW          28.5180    10.7370    19.5320 OW            1 RES     
    5482 HW1         28.8070    11.0330    20.4420 HW1           1 RES     
    5483 HW2         27.5190    10.7220    19.4880 HW2           1 RES     
    5484 OW          37.6080    14.6770    28.7010 OW            1 RES     
    5485 HW1         38.0020    15.5510    28.4180 HW1           1 RES     
    5486 HW2         36.8420    14.4460    28.1010 HW2           1 RES     
    5487 OW          13.4550    21.0920    22.1410 OW            1 RES     
    5488 HW1         14.1370    20.3620    22.1200 HW1           1 RES     
    5489 HW2         13.8960    21.9660    21.9360 HW2           1 RES     
    5490 OW          30.7150    16.6300    18.7870 OW            1 RES     
    5491 HW1         30.7500    16.3750    17.8220 HW1           1 RES     
    5492 HW2         31.5520    17.1190    19.0340 HW2           1 RES     
    5493 OW          19.8610    35.0530    17.1800 OW            1 RES     
    5494 HW1         20.5330    34.3550    16.9330 HW1           1 RES     
    5495 HW2         20.3270    35.9240    17.3380 HW2           1 RES     
    5496 OW          33.7200     7.4090    10.1330 OW            1 RES     
    5497 HW1         32.9280     7.7800    10.6160 HW1           1 RES     
    5498 HW2         34.4900     8.0420    10.2190 HW2           1 RES     
    5499 OW          33.6250    23.7850    25.5020 OW            1 RES     
    5500 HW1         34.1520    22.9510    25.3440 HW1           1 RES     
    5501 HW2         32.8100    23.7800    24.9230 HW2           1 RES     
    5502 OW          10.0760     5.4510    18.1660 OW            1 RES     
    5503 HW1          9.8100     6.3720    18.4480 HW1           1 RES     
    5504 HW2         11.0270     5.2840    18.4270 HW2           1 RES     
    5505 OW           0.7840    20.1200    19.2970 OW            1 RES     
    5506 HW1          0.0700    19.4220    19.3180 HW1           1 RES     
    5507 HW2          1.6820    19.6790    19.2970 HW2           1 RES     
    5508 OW          30.4950    36.0050    11.4090 OW            1 RES     
    5509 HW1         30.7360    35.0490    11.5750 HW1           1 RES     
    5510 HW2         29.7640    36.0520    10.7270 HW2           1 RES     
    5511 OW           6.3000    30.1040    20.6580 OW            1 RES     
    5512 HW1          6.6950    29.2620    20.2900 HW1           1 RES     
    5513 HW2          5.7790    30.5690    19.9420 HW2           1 RES     
    5514 OW          10.5640    21.4350    24.4840 OW            1 RES     
    5515 HW1         10.6880    22.3790    24.7870 HW1           1 RES     
    5516 HW2         11.3660    20.8940    24.7370 HW2           1 RES     
    5517 OW          38.9000    21.3590    19.1690 OW            1 RES     
    5518 HW1         38.8110    22.1500    18.5650 HW1           1 RES     
    5519 HW2         38.0260    21.1890    19.6260 HW2           1 RES     
    5520 OW          21.4590     7.5400    28.0850 OW            1 RES     
    5521 HW1         21.9470     8.1720    27.4840 HW1           1 RES     
    5522 HW2         20.9710     8.0570    28.7880 HW2           1 RES     
    5523 OW          19.0780    23.5940    19.5680 OW            1 RES     
    5524 HW1         19.4290    24.4200    20.0090 HW1           1 RES     
    5525 HW2         18.4220    23.1440    20.1740 HW2           1 RES     
    5526 OW          24.7030     5.3670     8.6780 OW            1 RES     
    5527 HW1         24.6940     4.5030     9.1800 HW1           1 RES     
    5528 HW2         25.2220     6.0480     9.1940 HW2           1 RES     
    5529 OW          20.7250    30.7300    26.9160 OW            1 RES     
    5530 HW1         21.1890    31.3420    27.5560 HW1           1 RES     
    5531 HW2         19.9540    31.2090    26.4950 HW2           1 RES     
    5532 OW          22.9900    38.0010     9.3680 OW            1 RES     
    5533 HW1         23.6830    38.3410    10.0030 HW1           1 RES     
    5534 HW2         22.3050    37.4740     9.8720 HW2           1 RES     
    5535 OW          26.3050    23.9990    27.4850 OW            1 RES     
    5536 HW1         25.8290    23.2070    27.1050 HW1           1 RES     
    5537 HW2         25.6650    24.7620    27.5780 HW2           1 RES     
    5538 OW          33.1830     5.3770    11.9450 OW            1 RES     
    5539 HW1         34.0220     5.7770    11.5770 HW1           1 RES     
    5540 HW2         33.0450     4.4700    11.5470 HW2           1 RES     
    5541 OW          36.4540    14.2850    13.2240 OW            1 RES     
    5542 HW1         36.7410    15.2340    13.1030 HW1           1 RES     
    5543 HW2         37.0220    13.8500    13.9240 HW2           1 RES     
    5544 OW          19.4690    28.9330    16.3370 OW            1 RES     
    5545 HW1         20.2580    28.3480    16.5220 HW1           1 RES     
    5546 HW2         18.6290    28.3990    16.4310 HW2           1 RES     
    5547 OW          33.7480    28.4990    26.0730 OW            1 RES     
    5548 HW1         32.9230    28.1170    25.6580 HW1           1 RES     
    5549 HW2         33.9390    29.3960    25.6740 HW2           1 RES     
    5550 OW          12.3440    28.8480    21.4760 OW            1 RES     
    5551 HW1         12.5120    29.8310    21.5340 HW1           1 RES     
    5552 HW2         11.3580    28.6760    21.4950 HW2           1 RES     
    5553 OW          31.3900    28.3380    29.9860 OW            1 RES     
    5554 HW1         30.4980    27.9990    29.6910 HW1           1 RES     
    5555 HW2         32.0780    27.6230    29.8590 HW2           1 RES     
    5556 OW          25.7990    13.5770    24.9290 OW            1 RES     
    5557 HW1         25.1850    12.7900    24.9740 HW1           1 RES     
    5558 HW2         26.7460    13.2580    24.8750 HW2           1 RES     
    5559 OW          37.7320    27.8130    21.3610 OW            1 RES     
    5560 HW1         38.3570    28.4160    21.8550 HW1           1 RES     
    5561 HW2         36.7900    28.0120    21.6330 HW2           1 RES     
    5562 OW           9.3380     9.1120     6.9450 OW            1 RES     
    5563 HW1          8.7850     8.4480     7.4470 HW1           1 RES     
    5564 HW2         10.2770     8.7730     6.8680 HW2           1 RES     
    5565 OW          20.2820    13.9790    23.1810 OW            1 RES     
    5566 HW1         20.2970    13.7350    24.1490 HW1           1 RES     
    5567 HW2         20.3380    13.1490    22.6260 HW2           1 RES     
    5568 OW          14.0160    15.1510    16.4090 OW            1 RES     
    5569 HW1         14.4930    15.9750    16.7140 HW1           1 RES     
    5570 HW2         13.1650    15.4080    15.9500 HW2           1 RES     
    5571 OW          12.7500    37.3370    17.8840 OW            1 RES     
    5572 HW1         11.7770    37.5650    17.8790 HW1           1 RES     
    5573 HW2         13.2900    38.1790    17.8810 HW2           1 RES     
    5574 OW          26.3170    37.8040    28.5640 OW            1 RES     
    5575 HW1         25.9480    37.8140    29.4920 HW1           1 RES     
    5576 HW2         27.2030    38.2690    28.5520 HW2           1 RES     
    5577 OW          14.4600    28.8570    10.0290 OW            1 RES     
    5578 HW1         15.0660    29.6500    10.0750 HW1           1 RES     
    5579 HW2         13.5100    29.1570    10.1120 HW2           1 RES     
    5580 OW          17.3960    10.1840    29.9390 OW            1 RES     
    5581 HW1         17.4520     9.3230    30.4430 HW1           1 RES     
    5582 HW2         17.8290    10.0760    29.0440 HW2           1 RES     
    5583 OW          19.2730     2.6670    21.9850 OW            1 RES     
    5584 HW1         19.6020     1.8920    22.5220 HW1           1 RES     
    5585 HW2         20.0370     3.0740    21.4840 HW2           1 RES     
    5586 OW          13.5600    29.4920    12.6340 OW            1 RES     
    5587 HW1         12.8120    29.9340    13.1290 HW1           1 RES     
    5588 HW2         14.3420    29.3730    13.2460 HW2           1 RES     
    5589 OW          27.9180    18.7340    20.0970 OW            1 RES     
    5590 HW1         27.7670    17.9340    19.5170 HW1           1 RES     
    5591 HW2         27.7390    18.4940    21.0510 HW2           1 RES     
    5592 OW          13.1490    32.8550    25.3220 OW            1 RES     
    5593 HW1         13.2240    33.8520    25.3100 HW1           1 RES     
    5594 HW2         13.8750    32.4720    25.8920 HW2           1 RES     
    5595 OW          36.7290    10.7350    15.4580 OW            1 RES     
    5596 HW1         37.6040    11.0830    15.1230 HW1           1 RES     
    5597 HW2         36.1800    11.4930    15.8090 HW2           1 RES     
    5598 OW          27.0250    18.1890     6.8770 OW            1 RES     
    5599 HW1         28.0230    18.1450     6.8680 HW1           1 RES     
    5600 HW2         26.7330    19.1440     6.9330 HW2           1 RES     
    5601 OW          24.1190    10.0470    25.8860 OW            1 RES     
    5602 HW1         25.0290     9.6350    25.8940 HW1           1 RES     
    5603 HW2         24.2040    11.0440    25.8860 HW2           1 RES     
    5604 OW          27.1720    22.2040    22.8930 OW            1 RES     
    5605 HW1         26.7240    21.3280    23.0700 HW1           1 RES     
    5606 HW2         26.4790    22.9100    22.7450 HW2           1 RES     
    5607 OW          26.6820    10.3830    11.6430 OW            1 RES     
    5608 HW1         26.8510    10.0190    12.5590 HW1           1 RES     
    5609 HW2         26.4590     9.6330    11.0210 HW2           1 RES     
    5610 OW          25.0670    17.6490     8.0960 OW            1 RES     
    5611 HW1         25.0660    18.6320     8.2770 HW1           1 RES     
    5612 HW2         24.9520    17.4910     7.1150 HW2           1 RES     
    5613 OW           9.2470    36.0220    27.7560 OW            1 RES     
    5614 HW1         10.1960    35.7330    27.6360 HW1           1 RES     
    5615 HW2          9.0090    36.6900    27.0510 HW2           1 RES     
    5616 OW           3.6370    25.2600    22.2980 OW            1 RES     
    5617 HW1          4.1630    25.8700    21.7070 HW1           1 RES     
    5618 HW2          3.2410    24.5230    21.7490 HW2           1 RES     
    5619 OW          26.6950     8.4630    18.7600 OW            1 RES     
    5620 HW1         27.5850     8.0100    18.7920 HW1           1 RES     
    5621 HW2         25.9890     7.8340    19.0870 HW2           1 RES     
    5622 OW          -0.0920    14.0700    11.1270 OW            1 RES     
    5623 HW1          0.5230    13.9260    10.3530 HW1           1 RES     
    5624 HW2         -1.0050    14.3020    10.7910 HW2           1 RES     
    5625 OW          12.3310    23.5510    16.4160 OW            1 RES     
    5626 HW1         11.8620    24.4340    16.4070 HW1           1 RES     
    5627 HW2         13.3200    23.6990    16.4230 HW2           1 RES     
    5628 OW          18.7520     2.7390    27.9800 OW            1 RES     
    5629 HW1         19.2230     2.5890    27.1110 HW1           1 RES     
    5630 HW2         19.0060     3.6350    28.3460 HW2           1 RES     
    5631 OW           3.9300    16.9220    17.9520 OW            1 RES     
    5632 HW1          3.6620    17.8840    17.9410 HW1           1 RES     
    5633 HW2          3.3500    16.4200    18.5940 HW2           1 RES     
    5634 OW           2.6570    35.5440    25.6110 OW            1 RES     
    5635 HW1          2.7520    35.6580    24.6230 HW1           1 RES     
    5636 HW2          2.5550    34.5730    25.8270 HW2           1 RES     
    5637 OW          28.9370    28.7180    26.6000 OW            1 RES     
    5638 HW1         29.0170    28.1930    27.4470 HW1           1 RES     
    5639 HW2         29.8330    29.0850    26.3500 HW2           1 RES     
    5640 OW          32.3120    24.4210    11.7860 OW            1 RES     
    5641 HW1         33.0610    24.9670    11.4100 HW1           1 RES     
    5642 HW2         31.8150    23.9780    11.0390 HW2           1 RES     
    5643 OW          35.2010    10.3940     9.1520 OW            1 RES     
    5644 HW1         35.6160    11.0490     8.5220 HW1           1 RES     
    5645 HW2         35.1060     9.5080     8.6970 HW2           1 RES     
    5646 OW           8.3510    11.3630    20.6340 OW            1 RES     
    5647 HW1          7.4890    11.8510    20.5000 HW1           1 RES     
    5648 HW2          8.2690    10.7490    21.4190 HW2           1 RES     
    5649 OW          21.0440    16.8670    29.1610 OW            1 RES     
    5650 HW1         21.2830    17.2970    28.2910 HW1           1 RES     
    5651 HW2         21.8420    16.8650    29.7640 HW2           1 RES     
    5652 OW          18.9350    18.8790    23.2650 OW            1 RES     
    5653 HW1         19.6250    18.1580    23.3170 HW1           1 RES     
    5654 HW2         19.3850    19.7720    23.2570 HW2           1 RES     
    5655 OW          17.5370     3.1180    13.4700 OW            1 RES     
    5656 HW1         16.6820     2.6900    13.1800 HW1           1 RES     
    5657 HW2         17.9160     3.6520    12.7140 HW2           1 RES     
    5658 OW           5.4260    20.5930    22.5750 OW            1 RES     
    5659 HW1          5.3310    19.5980    22.6080 HW1           1 RES     
    5660 HW2          6.3470    20.8300    22.2660 HW2           1 RES     
    5661 OW           9.7500    27.9120     7.7140 OW            1 RES     
    5662 HW1         10.4480    28.4510     8.1830 HW1           1 RES     
    5663 HW2         10.1370    27.5160     6.8810 HW2           1 RES     
    5664 OW           3.2390    21.8050    18.3610 OW            1 RES     
    5665 HW1          2.5950    22.1930    17.7030 HW1           1 RES     
    5666 HW2          2.7610    21.5990    19.2150 HW2           1 RES     
    5667 OW          12.5240    27.1700    12.4740 OW            1 RES     
    5668 HW1         11.9500    27.9260    12.7860 HW1           1 RES     
    5669 HW2         13.1670    27.5010    11.7840 HW2           1 RES     
    5670 OW          24.9380     5.4570    12.0000 OW            1 RES     
    5671 HW1         25.0820     5.5660    12.9830 HW1           1 RES     
    5672 HW2         24.4370     4.6090    11.8280 HW2           1 RES     
    5673 OW          20.8740    25.9680    12.8580 OW            1 RES     
    5674 HW1         21.3940    25.4850    12.1540 HW1           1 RES     
    5675 HW2         21.3170    25.8430    13.7450 HW2           1 RES     
    5676 OW          15.2680    25.4730    28.1770 OW            1 RES     
    5677 HW1         16.1500    25.3010    27.7410 HW1           1 RES     
    5678 HW2         14.7030    24.6490    28.1250 HW2           1 RES     
    5679 OW           9.2310    29.3300    15.9840 OW            1 RES     
    5680 HW1          8.6290    28.6440    15.5790 HW1           1 RES     
    5681 HW2          8.9600    29.4960    16.9320 HW2           1 RES     
    5682 OW          28.2650     2.2030    23.0850 OW            1 RES     
    5683 HW1         27.3750     1.7710    22.9400 HW1           1 RES     
    5684 HW2         28.9040     1.5330    23.4640 HW2           1 RES     
    5685 OW          19.2390     3.9000    18.1440 OW            1 RES     
    5686 HW1         18.9450     4.5690    17.4620 HW1           1 RES     
    5687 HW2         20.2170     4.0140    18.3240 HW2           1 RES     
    5688 OW          16.1510    21.9740    23.0240 OW            1 RES     
    5689 HW1         15.4240    21.4950    23.5150 HW1           1 RES     
    5690 HW2         15.7990    22.8400    22.6680 HW2           1 RES     
    5691 OW          23.6280    19.5900    14.6840 OW            1 RES     
    5692 HW1         23.4060    20.0640    15.5360 HW1           1 RES     
    5693 HW2         24.4680    19.0610    14.8060 HW2           1 RES     
    5694 OW           8.4040     7.9550    14.3110 OW            1 RES     
    5695 HW1          7.7160     7.5690    13.6970 HW1           1 RES     
    5696 HW2          7.9770     8.6400    14.9020 HW2           1 RES     
    5697 OW           5.8180    23.6390     9.3030 OW            1 RES     
    5698 HW1          6.7770    23.3670     9.3730 HW1           1 RES     
    5699 HW2          5.2330    22.8430     9.4580 HW2           1 RES     
    5700 OW           1.3760     2.4830    24.4840 OW            1 RES     
    5701 HW1          0.7320     3.1840    24.1790 HW1           1 RES     
    5702 HW2          2.3020     2.8610    24.4910 HW2           1 RES     
    5703 OW          23.0340    18.4750    20.6800 OW            1 RES     
    5704 HW1         23.6620    18.9040    20.0330 HW1           1 RES     
    5705 HW2         23.5570    18.0140    21.3980 HW2           1 RES     
    5706 OW          23.3610     8.0910     9.0300 OW            1 RES     
    5707 HW1         24.2930     8.4040     8.8480 HW1           1 RES     
    5708 HW2         22.7590     8.8810     9.1450 HW2           1 RES     
    5709 OW          12.1510    30.5000     8.2800 OW            1 RES     
    5710 HW1         11.1520    30.5390     8.2830 HW1           1 RES     
    5711 HW2         12.4480    29.5490     8.1900 HW2           1 RES     
    5712 OW          28.5120    35.0180    12.2280 OW            1 RES     
    5713 HW1         28.3690    35.8770    12.7190 HW1           1 RES     
    5714 HW2         27.8760    34.3270    12.5720 HW2           1 RES     
    5715 OW          28.6840    -0.4860     9.5010 OW            1 RES     
    5716 HW1         29.1420    -1.3400     9.7490 HW1           1 RES     
    5717 HW2         29.2320     0.0020     8.8220 HW2           1 RES     
    5718 OW          30.0330    -0.4930    13.6860 OW            1 RES     
    5719 HW1         30.1310    -0.9490    12.8020 HW1           1 RES     
    5720 HW2         30.8080    -0.7310    14.2720 HW2           1 RES     
    5721 OW          26.1200    11.3640    16.7600 OW            1 RES     
    5722 HW1         27.0140    11.5490    17.1670 HW1           1 RES     
    5723 HW2         26.1590    11.5380    15.7760 HW2           1 RES     
    5724 OW          14.2760    10.7160    13.4370 OW            1 RES     
    5725 HW1         14.9920    10.2500    13.9570 HW1           1 RES     
    5726 HW2         13.4650    10.1330    13.3910 HW2           1 RES     
    5727 OW           5.1600    12.5530    29.5920 OW            1 RES     
    5728 HW1          5.5160    12.4540    28.6640 HW1           1 RES     
    5729 HW2          5.9030    12.8130    30.2090 HW2           1 RES     
    5730 OW          26.4240    -0.1360    17.6910 OW            1 RES     
    5731 HW1         26.4100     0.8630    17.6680 HW1           1 RES     
    5732 HW2         25.4870    -0.4840    17.6820 HW2           1 RES     
    5733 OW          12.7050     7.8870     8.4330 OW            1 RES     
    5734 HW1         12.8920     7.0760     7.8800 HW1           1 RES     
    5735 HW2         13.4700     8.5270     8.3560 HW2           1 RES     
    5736 OW          34.0970    10.8610    26.5490 OW            1 RES     
    5737 HW1         33.6220    10.0220    26.8140 HW1           1 RES     
    5738 HW2         33.4680    11.6350    26.6150 HW2           1 RES     
    5739 OW          16.9240    11.7430    12.8870 OW            1 RES     
    5740 HW1         17.8970    11.7610    13.1170 HW1           1 RES     
    5741 HW2         16.6660    10.8210    12.6000 HW2           1 RES     
    5742 OW          10.6830    31.2470    26.0570 OW            1 RES     
    5743 HW1         11.1610    32.1110    25.9010 HW1           1 RES     
    5744 HW2         11.2110    30.4970    25.6590 HW2           1 RES     
    5745 OW          20.5550    22.7000     8.4170 OW            1 RES     
    5746 HW1         20.1070    21.8420     8.1670 HW1           1 RES     
    5747 HW2         21.5440    22.5580     8.4690 HW2           1 RES     
    5748 OW           0.1060     6.5340    22.9880 OW            1 RES     
    5749 HW1          0.8060     5.8560    22.7630 HW1           1 RES     
    5750 HW2         -0.8000     6.1260    22.8800 HW2           1 RES     
    5751 OW          18.9700    -1.9280    10.3510 OW            1 RES     
    5752 HW1         17.9780    -2.0480    10.3810 HW1           1 RES     
    5753 HW2         19.2120    -1.0480    10.7600 HW2           1 RES     
    5754 OW          30.8810     4.7000    20.2310 OW            1 RES     
    5755 HW1         30.3370     3.9660    20.6350 HW1           1 RES     
    5756 HW2         31.7850     4.3490    19.9840 HW2           1 RES     
    5757 OW          17.4900    15.9040     8.3510 OW            1 RES     
    5758 HW1         16.6590    15.4150     8.6100 HW1           1 RES     
    5759 HW2         17.9460    16.2490     9.1720 HW2           1 RES     
    5760 OW          38.0780    11.4290    19.9200 OW            1 RES     
    5761 HW1         37.5510    10.5880    20.0340 HW1           1 RES     
    5762 HW2         38.4510    11.4660    18.9920 HW2           1 RES     
    5763 OW           6.0060    13.0640    26.6080 OW            1 RES     
    5764 HW1          6.7490    13.0430    25.9390 HW1           1 RES     
    5765 HW2          5.2860    13.6800    26.2870 HW2           1 RES     
    5766 OW           5.8880    20.3170    19.8370 OW            1 RES     
    5767 HW1          5.3770    21.0880    20.2130 HW1           1 RES     
    5768 HW2          6.2040    20.5420    18.9150 HW2           1 RES     
    5769 OW           6.9340    18.1240    16.0390 OW            1 RES     
    5770 HW1          6.0080    17.7720    15.9050 HW1           1 RES     
    5771 HW2          7.5910    17.3760    15.9570 HW2           1 RES     
    5772 OW          26.0010    23.0600    24.8870 OW            1 RES     
    5773 HW1         26.5570    22.2530    25.0860 HW1           1 RES     
    5774 HW2         25.0970    22.7730    24.5710 HW2           1 RES     
    5775 OW          27.8160    11.9310    27.2510 OW            1 RES     
    5776 HW1         28.5960    11.8490    27.8710 HW1           1 RES     
    5777 HW2         28.0690    12.5000    26.4680 HW2           1 RES     
    5778 OW          19.5880     9.0680     9.1490 OW            1 RES     
    5779 HW1         20.5770     9.1910     9.0870 HW1           1 RES     
    5780 HW2         19.1720     9.8940     9.5330 HW2           1 RES     
    5781 OW           9.3500     5.1100    13.8310 OW            1 RES     
    5782 HW1          8.4470     5.5090    13.9850 HW1           1 RES     
    5783 HW2         10.0280     5.8400    13.7510 HW2           1 RES     
    5784 OW           2.6060    13.8290    14.9430 OW            1 RES     
    5785 HW1          3.5370    13.7820    14.5840 HW1           1 RES     
    5786 HW2          2.3420    12.9340    15.3050 HW2           1 RES     
    5787 OW          29.8170    33.9610    13.8390 OW            1 RES     
    5788 HW1         29.2360    34.5820    14.3630 HW1           1 RES     
    5789 HW2         30.1120    33.2050    14.4250 HW2           1 RES     
    5790 OW          38.3980    27.1280    16.1090 OW            1 RES     
    5791 HW1         37.8900    26.3380    15.7670 HW1           1 RES     
    5792 HW2         37.7590    27.7900    16.5030 HW2           1 RES     
    5793 OW           8.6920     2.7980    17.0590 OW            1 RES     
    5794 HW1          9.0420     3.6350    17.4790 HW1           1 RES     
    5795 HW2          8.9440     2.0110    17.6220 HW2           1 RES     
    5796 OW          20.9690    -1.2870    12.6780 OW            1 RES     
    5797 HW1         20.0360    -1.6440    12.7110 HW1           1 RES     
    5798 HW2         21.6180    -2.0480    12.6810 HW2           1 RES     
    5799 OW          19.9990     8.0400    26.4690 OW            1 RES     
    5800 HW1         19.2670     8.1210    27.1440 HW1           1 RES     
    5801 HW2         20.0160     8.8580    25.8950 HW2           1 RES     
    5802 OW          17.4720    26.9510    20.3110 OW            1 RES     
    5803 HW1         18.2270    26.8710    19.6610 HW1           1 RES     
    5804 HW2         17.8360    27.0060    21.2410 HW2           1 RES     
    5805 OW          33.0110    22.2310    20.9680 OW            1 RES     
    5806 HW1         32.8650    21.2430    20.9940 HW1           1 RES     
    5807 HW2         33.8070    22.4360    20.3980 HW2           1 RES     
    5808 OW          15.5650     6.7440    20.0680 OW            1 RES     
    5809 HW1         16.0490     5.8840    20.2260 HW1           1 RES     
    5810 HW2         16.2260     7.4680    19.8680 HW2           1 RES     
    5811 OW          30.5430    38.1090    10.7670 OW            1 RES     
    5812 HW1         31.0170    38.3410     9.9190 HW1           1 RES     
    5813 HW2         31.1230    38.3410    11.5480 HW2           1 RES     
    5814 OW          15.1170    24.0530    13.6080 OW            1 RES     
    5815 HW1         16.0360    24.4430    13.5610 HW1           1 RES     
    5816 HW2         14.4440    24.7560    13.3750 HW2           1 RES     
    5817 OW          18.5850    20.9240    29.0270 OW            1 RES     
    5818 HW1         18.3030    21.6870    29.6070 HW1           1 RES     
    5819 HW2         19.5460    20.7080    29.2020 HW2           1 RES     
    5820 OW          17.6210    36.8570    22.0750 OW            1 RES     
    5821 HW1         16.7590    36.3520    22.0640 HW1           1 RES     
    5822 HW2         18.3440    36.2760    22.4480 HW2           1 RES     
    5823 OW           8.4690    26.3300    12.2430 OW            1 RES     
    5824 HW1          7.4770    26.4500    12.2750 HW1           1 RES     
    5825 HW2          8.6890    25.3550    12.2660 HW2           1 RES     
    5826 OW          23.5070     3.8520    25.0560 OW            1 RES     
    5827 HW1         24.3770     3.6740    25.5130 HW1           1 RES     
    5828 HW2         22.9030     3.0620    25.1660 HW2           1 RES     
    5829 OW          18.1390    33.5130    29.8570 OW            1 RES     
    5830 HW1         17.9030    32.5710    30.0950 HW1           1 RES     
    5831 HW2         17.6270    34.1420    30.4420 HW2           1 RES     
    5832 OW          16.9490    29.5640    29.8000 OW            1 RES     
    5833 HW1         17.8710    29.1870    29.7240 HW1           1 RES     
    5834 HW2         16.2860    28.8170    29.8480 HW2           1 RES     
    5835 OW          32.1120    27.5030     9.6050 OW            1 RES     
    5836 HW1         32.6140    27.6620     8.7560 HW1           1 RES     
    5837 HW2         31.3580    26.8680     9.4330 HW2           1 RES     
    5838 OW          23.9800    31.0210    29.7700 OW            1 RES     
    5839 HW1         23.4300    31.6680    29.2430 HW1           1 RES     
    5840 HW2         24.9480    31.2550    29.6810 HW2           1 RES     
    5841 OW          21.1330    16.0170    26.1750 OW            1 RES     
    5842 HW1         21.0240    15.3870    25.4070 HW1           1 RES     
    5843 HW2         21.9040    15.7230    26.7410 HW2           1 RES     
    5844 OW          25.5950    11.8900     8.8910 OW            1 RES     
    5845 HW1         26.3160    12.3780     9.3830 HW1           1 RES     
    5846 HW2         25.7790    10.9080     8.9180 HW2           1 RES     
    5847 OW          37.3810    25.3450     9.0260 OW            1 RES     
    5848 HW1         38.3460    25.2250     9.2540 HW1           1 RES     
    5849 HW2         36.8870    24.4930     9.2050 HW2           1 RES     
    5850 OW          36.4750    32.3940    29.8520 OW            1 RES     
    5851 HW1         36.2240    31.5470    29.3850 HW1           1 RES     
    5852 HW2         35.6960    32.7250    30.3850 HW2           1 RES     
    5853 OW          21.4100    21.8350    20.8070 OW            1 RES     
    5854 HW1         22.1940    22.2170    20.3190 HW1           1 RES     
    5855 HW2         21.2580    22.3520    21.6500 HW2           1 RES     
    5856 OW          11.2260    27.2690    25.6700 OW            1 RES     
    5857 HW1         10.9360    26.5420    26.2920 HW1           1 RES     
    5858 HW2         10.4760    27.9180    25.5420 HW2           1 RES     
    5859 OW          25.8650     7.1730    29.9300 OW            1 RES     
    5860 HW1         26.6020     6.5330    29.7140 HW1           1 RES     
    5861 HW2         26.2420     8.0930    30.0370 HW2           1 RES     
    5862 OW          21.9610    20.3560    23.9080 OW            1 RES     
    5863 HW1         21.7270    20.6920    24.8200 HW1           1 RES     
    5864 HW2         21.3470    20.7670    23.2330 HW2           1 RES     
    5865 OW          26.0630     5.7800    19.8730 OW            1 RES     
    5866 HW1         25.7810     5.5170    20.7940 HW1           1 RES     
    5867 HW2         25.5840     5.2140    19.2020 HW2           1 RES     
    5868 OW          -0.4120     3.6930    22.3700 OW            1 RES     
    5869 HW1         -1.0050     4.1980    21.7440 HW1           1 RES     
    5870 HW2         -0.2060     2.7940    21.9830 HW2           1 RES     
    5871 OW          12.6460    35.3680    15.0640 OW            1 RES     
    5872 HW1         11.6500    35.4450    15.1000 HW1           1 RES     
    5873 HW2         13.0400    36.2520    14.8100 HW2           1 RES     
    5874 OW           8.4790    33.5600    24.5700 OW            1 RES     
    5875 HW1          7.6190    34.0660    24.5090 HW1           1 RES     
    5876 HW2          8.2860    32.5830    24.6670 HW2           1 RES     
    5877 OW          27.8400    21.8050    12.3920 OW            1 RES     
    5878 HW1         28.3960    21.0110    12.1460 HW1           1 RES     
    5879 HW2         28.2110    22.2300    13.2170 HW2           1 RES     
    5880 OW          30.9670    14.5800    22.9700 OW            1 RES     
    5881 HW1         30.1530    14.0370    22.7660 HW1           1 RES     
    5882 HW2         31.7280    13.9700    23.1920 HW2           1 RES     
    5883 OW           3.5090    30.8520    30.0530 OW            1 RES     
    5884 HW1          3.6810    31.7920    29.7600 HW1           1 RES     
    5885 HW2          4.3470    30.4640    30.4390 HW2           1 RES     
    5886 OW          36.0860    13.5120    17.3980 OW            1 RES     
    5887 HW1         36.8660    12.8880    17.3700 HW1           1 RES     
    5888 HW2         35.6160    13.4990    16.5160 HW2           1 RES     
    5889 OW          36.9200    -1.8100    27.4440 OW            1 RES     
    5890 HW1         37.2000    -1.4670    28.3400 HW1           1 RES     
    5891 HW2         37.6660    -1.6840    26.7900 HW2           1 RES     
    5892 OW          26.8550    27.7630    16.3330 OW            1 RES     
    5893 HW1         27.5760    27.4660    16.9590 HW1           1 RES     
    5894 HW2         25.9640    27.5000    16.7020 HW2           1 RES     
    5895 OW          30.8340    13.4260     8.0540 OW            1 RES     
    5896 HW1         31.4560    13.9590     8.6260 HW1           1 RES     
    5897 HW2         30.6740    12.5330     8.4760 HW2           1 RES     
    5898 OW          14.8040    35.2390    11.9140 OW            1 RES     
    5899 HW1         15.8020    35.2290    11.9590 HW1           1 RES     
    5900 HW2         14.4650    34.3040    11.8080 HW2           1 RES     
    5901 OW          22.3510    34.2490    30.3290 OW            1 RES     
    5902 HW1         22.3780    35.2420    30.4420 HW1           1 RES     
    5903 HW2         23.2820    33.9000    30.2150 HW2           1 RES     
    5904 OW          23.1990    12.9950    26.0400 OW            1 RES     
    5905 HW1         22.6210    13.2010    25.2510 HW1           1 RES     
    5906 HW2         23.7260    13.8080    26.2890 HW2           1 RES     
    5907 OW          29.2060    36.5030    16.2270 OW            1 RES     
    5908 HW1         29.2280    35.5460    16.5140 HW1           1 RES     
    5909 HW2         29.6640    37.0680    16.9140 HW2           1 RES     
    5910 OW          15.7410    12.6390    15.7370 OW            1 RES     
    5911 HW1         14.9200    13.1700    15.5260 HW1           1 RES     
    5912 HW2         15.5150    11.6650    15.7460 HW2           1 RES     
    5913 OW           9.1120    21.1810     8.0620 OW            1 RES     
    5914 HW1         10.0490    21.0930     8.3990 HW1           1 RES     
    5915 HW2          8.6190    20.3250     8.2180 HW2           1 RES     
    5916 OW          37.3820    13.2350    22.9390 OW            1 RES     
    5917 HW1         37.0560    14.0190    23.4650 HW1           1 RES     
    5918 HW2         37.4510    12.4360    23.5380 HW2           1 RES     
    5919 OW          14.3140     7.6340    10.3390 OW            1 RES     
    5920 HW1         14.1950     6.7250     9.9410 HW1           1 RES     
    5921 HW2         13.6990     7.7400    11.1200 HW2           1 RES     
    5922 OW          15.4430    36.3110    28.0640 OW            1 RES     
    5923 HW1         14.5010    36.0040    28.1970 HW1           1 RES     
    5924 HW2         16.0640    35.5320    28.1530 HW2           1 RES     
    5925 OW          24.5280    15.2320    28.7800 OW            1 RES     
    5926 HW1         24.3800    14.2890    29.0750 HW1           1 RES     
    5927 HW2         23.8940    15.4540    28.0390 HW2           1 RES     
    5928 OW          36.2180    12.6120    29.6760 OW            1 RES     
    5929 HW1         35.6070    12.8060    30.4420 HW1           1 RES     
    5930 HW2         36.3170    11.6230    29.5690 HW2           1 RES     
    5931 OW          13.5450    14.8610    10.0600 OW            1 RES     
    5932 HW1         14.4220    14.9630     9.5910 HW1           1 RES     
    5933 HW2         13.4410    15.5920    10.7350 HW2           1 RES     
    5934 OW          27.6880    32.3950    16.2450 OW            1 RES     
    5935 HW1         27.8850    31.5690    16.7710 HW1           1 RES     
    5936 HW2         28.5440    32.7960    15.9180 HW2           1 RES     
    5937 OW          15.5460     9.3640     7.2330 OW            1 RES     
    5938 HW1         15.5940     8.3670     7.2950 HW1           1 RES     
    5939 HW2         14.6550     9.6330     6.8670 HW2           1 RES     
    5940 OW          36.6110    33.0970     9.1230 OW            1 RES     
    5941 HW1         36.2810    33.1250    10.0660 HW1           1 RES     
    5942 HW2         37.2550    32.3390     9.0160 HW2           1 RES     
    5943 OW          34.9330     8.7130    25.0780 OW            1 RES     
    5944 HW1         34.7670     8.3350    25.9880 HW1           1 RES     
    5945 HW2         34.1260     9.2210    24.7750 HW2           1 RES     
    5946 OW           4.6120    -1.0900    18.7710 OW            1 RES     
    5947 HW1          3.6250    -1.2410    18.7370 HW1           1 RES     
    5948 HW2          4.7960    -0.1320    18.9920 HW2           1 RES     
    5949 OW          11.7970    31.6970    18.0580 OW            1 RES     
    5950 HW1         12.3170    31.5120    18.8910 HW1           1 RES     
    5951 HW2         11.4860    30.8340    17.6600 HW2           1 RES     
    5952 OW          14.0620    20.7190     7.5820 OW            1 RES     
    5953 HW1         14.7270    21.4320     7.3650 HW1           1 RES     
    5954 HW2         13.2270    21.1380     7.9380 HW2           1 RES     
    5955 OW          21.6630     3.0540    14.2740 OW            1 RES     
    5956 HW1         21.7230     3.7110    15.0250 HW1           1 RES     
    5957 HW2         20.8160     2.5290    14.3560 HW2           1 RES     
    5958 OW          20.2650     8.6010    15.7260 OW            1 RES     
    5959 HW1         20.7670     8.1190    16.4440 HW1           1 RES     
    5960 HW2         19.6200     7.9730    15.2900 HW2           1 RES     
    5961 OW          12.5120     3.7250    25.8940 OW            1 RES     
    5962 HW1         13.3790     4.2020    26.0340 HW1           1 RES     
    5963 HW2         12.6910     2.8030    25.5500 HW2           1 RES     
    5964 OW          28.2320    24.0190    11.6790 OW            1 RES     
    5965 HW1         27.2510    23.9270    11.8470 HW1           1 RES     
    5966 HW2         28.4720    24.9890    11.6290 HW2           1 RES     
    5967 OW          35.4890    22.3470     9.7420 OW            1 RES     
    5968 HW1         36.0190    21.5810     9.3800 HW1           1 RES     
    5969 HW2         34.5130    22.1430     9.6680 HW2           1 RES     
    5970 OW          25.1390    31.2330    23.0640 OW            1 RES     
    5971 HW1         26.0190    31.6850    22.9200 HW1           1 RES     
    5972 HW2         24.5900    31.7680    23.7070 HW2           1 RES     
    5973 OW           9.1360     3.8840    22.3210 OW            1 RES     
    5974 HW1          9.2190     3.4090    23.1970 HW1           1 RES     
    5975 HW2          8.5410     3.3590    21.7120 HW2           1 RES     
    5976 OW           7.7410    22.5580    30.4180 OW            1 RES     
    5977 HW1          8.7310    22.4960    30.3010 HW1           1 RES     
    5978 HW2          7.3490    21.6380    30.4430 HW2           1 RES     
    5979 OW          16.6500    31.0520    16.3420 OW            1 RES     
    5980 HW1         16.8360    31.3270    15.4000 HW1           1 RES     
    5981 HW2         17.2880    30.3310    16.6120 HW2           1 RES     
    5982 OW          19.4910    37.4780    18.7900 OW            1 RES     
    5983 HW1         19.9770    37.9930    18.0850 HW1           1 RES     
    5984 HW2         18.7010    38.0060    19.1050 HW2           1 RES     
    5985 OW          12.1010     9.6500    15.1770 OW            1 RES     
    5986 HW1         11.1050     9.7180    15.2210 HW1           1 RES     
    5987 HW2         12.5040    10.5530    15.3260 HW2           1 RES     
    5988 OW          11.4930    34.4070    13.1670 OW            1 RES     
    5989 HW1         10.8890    33.8150    12.6340 HW1           1 RES     
    5990 HW2         12.4150    34.3800    12.7790 HW2           1 RES     
    5991 OW          32.2480     5.8680     8.5880 OW            1 RES     
    5992 HW1         32.1950     5.2720     9.3890 HW1           1 RES     
    5993 HW2         31.5250     6.5560     8.6350 HW2           1 RES     
    5994 OW          39.0830    26.4930    26.1000 OW            1 RES     
    5995 HW1         39.1870    25.7390    25.4520 HW1           1 RES     
    5996 HW2         39.1870    26.1480    27.0330 HW2           1 RES     
    5997 OW          25.5700    11.4310    13.6590 OW            1 RES     
    5998 HW1         26.1650    12.0550    13.1530 HW1           1 RES     
    5999 HW2         24.7850    11.9360    14.0180 HW2           1 RES     
    6000 OW          24.6180    37.7550    21.3380 OW            1 RES     
    6001 HW1         25.4310    38.3360    21.3370 HW1           1 RES     
    6002 HW2         23.7980    38.3270    21.3360 HW2           1 RES     
    6003 OW          31.7490    25.2080     7.1300 OW            1 RES     
    6004 HW1         31.6100    25.1240     8.1160 HW1           1 RES     
    6005 HW2         31.8790    26.1700     6.8920 HW2           1 RES     
    6006 OW          32.4060     6.7870    21.5990 OW            1 RES     
    6007 HW1         32.2160     6.3860    20.7040 HW1           1 RES     
    6008 HW2         31.7560     7.5250    21.7800 HW2           1 RES     
    6009 OW          22.5890     7.1730    15.5460 OW            1 RES     
    6010 HW1         22.1560     7.6730    14.7970 HW1           1 RES     
    6011 HW2         23.5810     7.2820    15.4900 HW2           1 RES     
    6012 OW          19.3820    25.6300    17.7170 OW            1 RES     
    6013 HW1         18.5570    25.0790    17.8370 HW1           1 RES     
    6014 HW2         19.1340    26.5980    17.6730 HW2           1 RES     
    6015 OW          11.5160    -0.8660    19.2960 OW            1 RES     
    6016 HW1         10.5510    -0.6090    19.2540 HW1           1 RES     
    6017 HW2         11.6380    -1.7760    18.8990 HW2           1 RES     
    6018 OW           9.3670     1.1510    27.2830 OW            1 RES     
    6019 HW1          8.6530     0.7420    26.7160 HW1           1 RES     
    6020 HW2          8.9980     1.9490    27.7600 HW2           1 RES     
    6021 OW          11.2120     2.4510    16.9990 OW            1 RES     
    6022 HW1         10.6990     2.5650    16.1490 HW1           1 RES     
    6023 HW2         11.3330     3.3410    17.4380 HW2           1 RES     
    6024 OW           4.3240    10.1350    23.1510 OW            1 RES     
    6025 HW1          4.2210    10.7010    23.9670 HW1           1 RES     
    6026 HW2          4.4420    10.7220    22.3500 HW2           1 RES     
    6027 OW          36.1480     7.1980    13.8300 OW            1 RES     
    6028 HW1         36.2340     7.8060    14.6180 HW1           1 RES     
    6029 HW2         36.2200     6.2470    14.1320 HW2           1 RES     
    6030 OW           5.1260    23.4160    19.1550 OW            1 RES     
    6031 HW1          5.3100    22.6140    18.5870 HW1           1 RES     
    6032 HW2          4.2480    23.3010    19.6200 HW2           1 RES     
    6033 OW          26.9210     4.0280    24.9540 OW            1 RES     
    6034 HW1         26.6610     3.5430    25.7880 HW1           1 RES     
    6035 HW2         27.9190     4.0750    24.8930 HW2           1 RES     
    6036 OW          17.4950    20.0900    24.9870 OW            1 RES     
    6037 HW1         17.3780    20.2750    24.0110 HW1           1 RES     
    6038 HW2         16.6070    20.1360    25.4440 HW2           1 RES     
    6039 OW           9.6130    17.8550    20.3190 OW            1 RES     
    6040 HW1         10.1720    17.4550    19.5940 HW1           1 RES     
    6041 HW2          9.4860    18.8310    20.1420 HW2           1 RES     
    6042 OW          16.8260    11.1130     7.6110 OW            1 RES     
    6043 HW1         17.3120    10.6560     6.8670 HW1           1 RES     
    6044 HW2         17.2420    10.8620     8.4850 HW2           1 RES     
    6045 OW          22.6260     5.8200    23.5630 OW            1 RES     
    6046 HW1         22.2660     4.9100    23.3620 HW1           1 RES     
    6047 HW2         21.8880     6.4920    23.4990 HW2           1 RES     
    6048 OW          13.2910     1.8610    14.5440 OW            1 RES     
    6049 HW1         12.7130     2.6070    14.8730 HW1           1 RES     
    6050 HW2         13.7710     2.1500    13.7150 HW2           1 RES     
    6051 OW          21.3510    31.1020    20.6010 OW            1 RES     
    6052 HW1         21.8030    31.5940    21.3450 HW1           1 RES     
    6053 HW2         20.4100    31.4280    20.5100 HW2           1 RES     
    6054 OW          29.4660    35.9570    28.0160 OW            1 RES     
    6055 HW1         28.8070    35.5710    28.6610 HW1           1 RES     
    6056 HW2         30.2810    35.3780    27.9860 HW2           1 RES     
    6057 OW           2.5340    25.2260    14.6650 OW            1 RES     
    6058 HW1          1.6430    25.6700    14.7510 HW1           1 RES     
    6059 HW2          3.2520    25.9210    14.6370 HW2           1 RES     
    6060 OW          17.6000    10.7650    26.9580 OW            1 RES     
    6061 HW1         16.7280    10.6620    26.4810 HW1           1 RES     
    6062 HW2         18.2000    10.0000    26.7270 HW2           1 RES     
    6063 OW          19.5430     3.9860     8.3420 OW            1 RES     
    6064 HW1         18.6940     4.3750     8.6980 HW1           1 RES     
    6065 HW2         19.7730     4.4250     7.4730 HW2           1 RES     
    6066 OW          33.3700    12.3530    21.3300 OW            1 RES     
    6067 HW1         32.8960    12.3830    22.2100 HW1           1 RES     
    6068 HW2         33.3420    11.4210    20.9680 HW2           1 RES     
    6069 OW          17.9120    29.6570    20.6910 OW            1 RES     
    6070 HW1         18.3470    30.5000    20.3740 HW1           1 RES     
    6071 HW2         17.4310    29.8320    21.5500 HW2           1 RES     
    6072 OW          32.8240    28.0280    19.1200 OW            1 RES     
    6073 HW1         33.2900    27.8950    18.2460 HW1           1 RES     
    6074 HW2         33.3030    28.7270    19.6510 HW2           1 RES     
    6075 OW          22.2950    17.6750    18.1550 OW            1 RES     
    6076 HW1         22.0490    17.1780    17.3230 HW1           1 RES     
    6077 HW2         23.2730    17.5620    18.3350 HW2           1 RES     
    6078 OW          13.0930    12.2590    16.5840 OW            1 RES     
    6079 HW1         12.9280    13.2440    16.5600 HW1           1 RES     
    6080 HW2         13.2220    11.9650    17.5310 HW2           1 RES     
    6081 OW          18.1760    14.9770    29.0680 OW            1 RES     
    6082 HW1         18.2260    15.5300    29.8990 HW1           1 RES     
    6083 HW2         17.2280    14.7020    28.9060 HW2           1 RES     
    6084 OW           4.8120     6.1190    17.2690 OW            1 RES     
    6085 HW1          3.8660     6.3800    17.0790 HW1           1 RES     
    6086 HW2          5.4130     6.5140    16.5740 HW2           1 RES     
    6087 OW          27.2360    -0.0770    30.1450 OW            1 RES     
    6088 HW1         26.9640    -0.9910    30.4430 HW1           1 RES     
    6089 HW2         27.9850    -0.1490    29.4860 HW2           1 RES     
    6090 OW          27.6320     5.2120    14.2530 OW            1 RES     
    6091 HW1         27.3800     4.3830    14.7510 HW1           1 RES     
    6092 HW2         28.2340     5.7740    14.8210 HW2           1 RES     
    6093 OW          20.9530    10.5340    11.8150 OW            1 RES     
    6094 HW1         20.0180    10.5280    11.4620 HW1           1 RES     
    6095 HW2         21.0770    11.3200    12.4200 HW2           1 RES     
    6096 OW          20.0920     4.5380    13.2680 OW            1 RES     
    6097 HW1         20.8150     4.2560    12.6380 HW1           1 RES     
    6098 HW2         19.5610     5.2780    12.8550 HW2           1 RES     
    6099 OW          20.3480    36.5230    10.1950 OW            1 RES     
    6100 HW1         19.7090    35.9010     9.7450 HW1           1 RES     
    6101 HW2         20.0830    37.4690    10.0060 HW2           1 RES     
    6102 OW          19.8980    34.3140    26.7960 OW            1 RES     
    6103 HW1         20.8040    34.4110    26.3870 HW1           1 RES     
    6104 HW2         19.5860    33.3690    26.6970 HW2           1 RES     
    6105 OW          19.8320    15.7870    17.8520 OW            1 RES     
    6106 HW1         20.7450    15.6150    18.2190 HW1           1 RES     
    6107 HW2         19.1470    15.3820    18.4590 HW2           1 RES     
    6108 OW           6.8500     5.3750    10.0120 OW            1 RES     
    6109 HW1          6.7150     4.9230     9.1310 HW1           1 RES     
    6110 HW2          5.9640     5.6510    10.3850 HW2           1 RES     
    6111 OW           9.3190    24.8240    22.9340 OW            1 RES     
    6112 HW1          8.7990    23.9860    23.0920 HW1           1 RES     
    6113 HW2          8.7180    25.6160    23.0460 HW2           1 RES     
    6114 OW           6.5880    35.5150    13.8060 OW            1 RES     
    6115 HW1          6.9330    36.4530    13.8320 HW1           1 RES     
    6116 HW2          5.9300    35.3810    14.5470 HW2           1 RES     
    6117 OW          23.3850    35.0650    23.3240 OW            1 RES     
    6118 HW1         24.2250    35.6050    23.3730 HW1           1 RES     
    6119 HW2         23.5600    34.2200    22.8180 HW2           1 RES     
    6120 OW          38.6580    10.1100    26.0630 OW            1 RES     
    6121 HW1         37.8710    10.1130    26.6790 HW1           1 RES     
    6122 HW2         38.7910    11.0270    25.6870 HW2           1 RES     
    6123 OW          14.0310     6.7040    15.8870 OW            1 RES     
    6124 HW1         14.2550     5.7890    15.5540 HW1           1 RES     
    6125 HW2         13.2370     6.6550    16.4930 HW2           1 RES     
    6126 OW          35.7050    25.9190    17.6370 OW            1 RES     
    6127 HW1         36.6780    25.6910    17.6100 HW1           1 RES     
    6128 HW2         35.5970    26.9140    17.6490 HW2           1 RES     
    6129 OW          19.3820     6.9350    24.1490 OW            1 RES     
    6130 HW1         18.8630     7.7830    24.0450 HW1           1 RES     
    6131 HW2         18.7530     6.1800    24.3360 HW2           1 RES     
    6132 OW          25.2310    23.9560     8.7880 OW            1 RES     
    6133 HW1         25.7960    23.6850     8.0100 HW1           1 RES     
    6134 HW2         24.2990    23.6170     8.6580 HW2           1 RES     
    6135 OW           2.4310    18.2490    23.4900 OW            1 RES     
    6136 HW1          2.9670    17.6450    24.0800 HW1           1 RES     
    6137 HW2          2.3000    17.8140    22.5990 HW2           1 RES     
    6138 OW           4.3760     2.5150    11.7030 OW            1 RES     
    6139 HW1          4.9500     2.1320    12.4270 HW1           1 RES     
    6140 HW2          3.4230     2.2560    11.8610 HW2           1 RES     
    6141 OW           5.9140     4.7550    22.8980 OW            1 RES     
    6142 HW1          6.5970     4.7770    22.1690 HW1           1 RES     
    6143 HW2          4.9970     4.7550    22.4980 HW2           1 RES     
    6144 OW           4.1670     8.2580    21.6290 OW            1 RES     
    6145 HW1          3.7700     7.3490    21.5130 HW1           1 RES     
    6146 HW2          3.4600     8.9520    21.4880 HW2           1 RES     
    6147 OW          21.7570     9.8190    14.5200 OW            1 RES     
    6148 HW1         21.6240     9.4440    13.6040 HW1           1 RES     
    6149 HW2         21.3010    10.7070    14.5870 HW2           1 RES     
    6150 OW          11.4280     1.2100    20.1380 OW            1 RES     
    6151 HW1         10.9080     2.0430    20.3270 HW1           1 RES     
    6152 HW2         11.4400     0.6310    20.9540 HW2           1 RES     
    6153 OW          13.9080    28.5770    19.4480 OW            1 RES     
    6154 HW1         14.1610    29.1010    20.2610 HW1           1 RES     
    6155 HW2         14.6370    27.9280    19.2300 HW2           1 RES     
    6156 OW          37.7790    -1.8980    11.0520 OW            1 RES     
    6157 HW1         37.3220    -1.0120    10.9820 HW1           1 RES     
    6158 HW2         38.7670    -1.7590    11.1270 HW2           1 RES     
    6159 OW          20.7120    -2.0480    20.5240 OW            1 RES     
    6160 HW1         20.5370    -1.3720    19.8100 HW1           1 RES     
    6161 HW2         21.6820    -2.0330    20.7690 HW2           1 RES     
    6162 OW          17.3420     0.8770    26.2160 OW            1 RES     
    6163 HW1         17.2110     1.8570    26.3580 HW1           1 RES     
    6164 HW2         16.6520     0.3700    26.7340 HW2           1 RES     
    6165 OW           2.3290    14.0580    26.8260 OW            1 RES     
    6166 HW1          3.1980    13.6000    27.0080 HW1           1 RES     
    6167 HW2          2.5040    14.9630    26.4370 HW2           1 RES     
    6168 OW          19.2630    33.7750    19.3360 OW            1 RES     
    6169 HW1         19.5450    34.7340    19.3390 HW1           1 RES     
    6170 HW2         19.1650    33.4540    20.2780 HW2           1 RES     
    6171 OW          14.6250     3.8220    11.8830 OW            1 RES     
    6172 HW1         14.1910     4.3160    11.1300 HW1           1 RES     
    6173 HW2         15.5250     4.2160    12.0660 HW2           1 RES     
    6174 OW          36.3060    14.9960    20.6790 OW            1 RES     
    6175 HW1         35.5560    15.2230    21.2990 HW1           1 RES     
    6176 HW2         37.1570    14.9150    21.1980 HW2           1 RES     
    6177 OW          19.9070     4.6240    10.6680 OW            1 RES     
    6178 HW1         19.3040     5.4100    10.5410 HW1           1 RES     
    6179 HW2         19.3610     3.7870    10.7110 HW2           1 RES     
    6180 OW          31.5980    33.2950    26.2260 OW            1 RES     
    6181 HW1         31.0210    33.5560    26.9980 HW1           1 RES     
    6182 HW2         31.4090    33.8950    25.4480 HW2           1 RES     
    6183 OW          -0.9950    27.8540    27.5170 OW            1 RES     
    6184 HW1         -0.7330    26.8930    27.4320 HW1           1 RES     
    6185 HW2         -0.1930    28.4330    27.3710 HW2           1 RES     
    6186 OW          30.4170    -1.7920    24.6760 OW            1 RES     
    6187 HW1         30.4110    -1.1080    23.9480 HW1           1 RES     
    6188 HW2         31.0900    -1.5350    25.3700 HW2           1 RES     
    6189 OW           2.9980    19.6990    25.1250 OW            1 RES     
    6190 HW1          3.8760    19.8370    24.6670 HW1           1 RES     
    6191 HW2          3.0910    18.9860    25.8200 HW2           1 RES     
    6192 OW          27.8970    29.3030    22.4210 OW            1 RES     
    6193 HW1         28.8950    29.2410    22.4050 HW1           1 RES     
    6194 HW2         27.6220    30.2650    22.4190 HW2           1 RES     
    6195 OW           6.6950    14.1580    21.2180 OW            1 RES     
    6196 HW1          6.1690    13.3580    21.5040 HW1           1 RES     
    6197 HW2          7.6720    13.9530    21.2740 HW2           1 RES     
    6198 OW          28.0670    32.5600    24.2920 OW            1 RES     
    6199 HW1         28.4490    33.2620    23.6920 HW1           1 RES     
    6200 HW2         28.4450    31.6680    24.0440 HW2           1 RES     
    6201 OW          25.8520    21.9640    14.1300 OW            1 RES     
    6202 HW1         26.4720    22.6580    14.4940 HW1           1 RES     
    6203 HW2         24.9080    22.2850    14.2090 HW2           1 RES     
    6204 OW          15.6840    34.0690    26.5450 OW            1 RES     
    6205 HW1         14.8330    34.0660    27.0680 HW1           1 RES     
    6206 HW2         15.9330    33.1300    26.3080 HW2           1 RES     
    6207 OW           9.2780    29.6820    24.9970 OW            1 RES     
    6208 HW1          9.0340    29.7020    25.9660 HW1           1 RES     
    6209 HW2          8.6920    30.3170    24.4930 HW2           1 RES     
    6210 OW          15.4250    -0.4070    16.7600 OW            1 RES     
    6211 HW1         14.8750     0.0670    16.0730 HW1           1 RES     
    6212 HW2         16.0860     0.2300    17.1560 HW2           1 RES     
    6213 OW          37.3450    18.5440    29.3090 OW            1 RES     
    6214 HW1         36.3610    18.6140    29.1540 HW1           1 RES     
    6215 HW2         37.6570    17.6250    29.0650 HW2           1 RES     
    6216 OW          12.6700    26.1870     7.1980 OW            1 RES     
    6217 HW1         12.2850    25.3250     6.8690 HW1           1 RES     
    6218 HW2         13.6670    26.1180     7.2260 HW2           1 RES     
    6219 OW          39.0110     2.5500    22.1690 OW            1 RES     
    6220 HW1         39.1880     3.5320    22.1170 HW1           1 RES     
    6221 HW2         38.0270     2.3840    22.1130 HW2           1 RES     
    6222 OW          25.3770    19.5080    21.9840 OW            1 RES     
    6223 HW1         25.5710    18.9030    21.2120 HW1           1 RES     
    6224 HW2         25.0100    18.9710    22.7440 HW2           1 RES     
    6225 OW          19.4090     0.6780    28.4300 OW            1 RES     
    6226 HW1         19.5920    -0.2830    28.6360 HW1           1 RES     
    6227 HW2         20.1380     1.2460    28.8120 HW2           1 RES     
    6228 OW          29.9080    25.2670    20.2900 OW            1 RES     
    6229 HW1         30.5240    25.8390    20.8320 HW1           1 RES     
    6230 HW2         29.1130    25.0170    20.8420 HW2           1 RES     
    6231 OW          13.7500    34.6070     7.1460 OW            1 RES     
    6232 HW1         14.4160    33.8830     7.3200 HW1           1 RES     
    6233 HW2         14.2280    35.4410     6.8680 HW2           1 RES     
    6234 OW          22.1310    33.8660    20.2150 OW            1 RES     
    6235 HW1         21.3370    33.3350    19.9230 HW1           1 RES     
    6236 HW2         21.8530    34.8080    20.4020 HW2           1 RES     
    6237 OW           4.4730    19.2300    14.8050 OW            1 RES     
    6238 HW1          3.9640    19.9210    14.2940 HW1           1 RES     
    6239 HW2          4.6480    19.5610    15.7330 HW2           1 RES     
    6240 OW          32.9010     9.3300    29.9570 OW            1 RES     
    6241 HW1         33.3630     8.4590    30.1190 HW1           1 RES     
    6242 HW2         32.5870     9.3700    29.0080 HW2           1 RES     
    6243 OW          19.1650    11.8470    24.5210 OW            1 RES     
    6244 HW1         18.6510    11.9170    25.3750 HW1           1 RES     
    6245 HW2         18.6620    12.3080    23.7890 HW2           1 RES     
    6246 OW          15.7280    28.5230     7.0700 OW            1 RES     
    6247 HW1         15.9030    28.0660     7.9410 HW1           1 RES     
    6248 HW2         14.7490    28.4910     6.8670 HW2           1 RES     
    6249 OW          22.2550    37.7010    23.1290 OW            1 RES     
    6250 HW1         21.5280    38.3400    22.8810 HW1           1 RES     
    6251 HW2         22.2070    36.8940    22.5390 HW2           1 RES     
    6252 OW          32.7560     8.4960    12.6940 OW            1 RES     
    6253 HW1         32.2740     9.3050    13.0290 HW1           1 RES     
    6254 HW2         33.4860     8.2540    13.3320 HW2           1 RES     
    6255 OW          30.4050    21.5260    15.8320 OW            1 RES     
    6256 HW1         31.2770    21.9240    16.1140 HW1           1 RES     
    6257 HW2         29.6670    21.9090    16.3880 HW2           1 RES     
    6258 OW           6.3550    10.8450    15.7390 OW            1 RES     
    6259 HW1          7.3130    11.1150    15.6490 HW1           1 RES     
    6260 HW2          6.3000     9.8620    15.9150 HW2           1 RES     
    6261 OW          36.4080    25.9440    27.0740 OW            1 RES     
    6262 HW1         37.1630    25.2900    27.1110 HW1           1 RES     
    6263 HW2         36.7660    26.8730    27.1720 HW2           1 RES     
    6264 OW          34.1330     4.2110    18.5770 OW            1 RES     
    6265 HW1         35.1300     4.2070    18.5160 HW1           1 RES     
    6266 HW2         33.7880     3.2770    18.4740 HW2           1 RES     
    6267 OW          39.1880    15.2870    18.4500 OW            1 RES     
    6268 HW1         38.8050    14.6720    17.7620 HW1           1 RES     
    6269 HW2         38.4720    15.8980    18.7870 HW2           1 RES     
    6270 OW          17.1620     5.5030    11.0330 OW            1 RES     
    6271 HW1         17.2950     4.5410    10.7990 HW1           1 RES     
    6272 HW2         17.6050     5.6980    11.9080 HW2           1 RES     
    6273 OW          14.6410    21.0350   -47.1880 OW            1 RES     
    6274 HW1         14.1770    20.3090   -46.6820 HW1           1 RES     
    6275 HW2         14.1550    21.8980   -47.0540 HW2           1 RES     
    6276 OW          12.3710    22.9000   -49.4940 OW            1 RES     
    6277 HW1         12.2360    21.9320   -49.2820 HW1           1 RES     
    6278 HW2         11.5960    23.2350   -50.0290 HW2           1 RES     
    6279 OW          27.9040    34.0720   -42.3840 OW            1 RES     
    6280 HW1         28.7020    33.7780   -41.8580 HW1           1 RES     
    6281 HW2         27.3510    33.2750   -42.6270 HW2           1 RES     
    6282 OW          15.4040    17.6010   -34.3920 OW            1 RES     
    6283 HW1         15.4130    17.1970   -33.4780 HW1           1 RES     
    6284 HW2         15.6530    18.5680   -34.3320 HW2           1 RES     
    6285 OW          38.2810     6.5510   -52.0110 OW            1 RES     
    6286 HW1         38.3680     6.5370   -51.0160 HW1           1 RES     
    6287 HW2         39.1860     6.6520   -52.4240 HW2           1 RES     
    6288 OW           7.2670    -1.4740   -46.5700 OW            1 RES     
    6289 HW1          7.1270    -1.6030   -45.5890 HW1           1 RES     
    6290 HW2          6.7790    -0.6550   -46.8730 HW2           1 RES     
    6291 OW           7.1200    14.1780   -42.9080 OW            1 RES     
    6292 HW1          7.5770    13.2890   -42.8990 HW1           1 RES     
    6293 HW2          6.1720    14.0690   -42.6090 HW2           1 RES     
    6294 OW          -0.5540     3.6010   -35.9840 OW            1 RES     
    6295 HW1          0.1250     2.9370   -36.2970 HW1           1 RES     
    6296 HW2         -0.3680     4.4910   -36.4020 HW2           1 RES     
    6297 OW           5.1850    38.1550   -44.9710 OW            1 RES     
    6298 HW1          6.1220    37.9250   -45.2300 HW1           1 RES     
    6299 HW2          5.1460    38.3410   -43.9890 HW2           1 RES     
    6300 OW          35.3840    16.2970   -37.1710 OW            1 RES     
    6301 HW1         35.0370    17.2340   -37.1680 HW1           1 RES     
    6302 HW2         36.3730    16.3070   -37.3160 HW2           1 RES     
    6303 OW          18.1130    23.7630   -52.9170 OW            1 RES     
    6304 HW1         18.5570    24.6580   -52.9540 HW1           1 RES     
    6305 HW2         18.7440    23.0640   -53.2550 HW2           1 RES     
    6306 OW           5.4000    37.3580   -39.6140 OW            1 RES     
    6307 HW1          5.1630    36.3940   -39.4950 HW1           1 RES     
    6308 HW2          4.8610    37.9150   -38.9820 HW2           1 RES     
    6309 OW           7.1340     2.8330   -44.6280 OW            1 RES     
    6310 HW1          6.9150     3.4200   -43.8500 HW1           1 RES     
    6311 HW2          6.7790     3.2450   -45.4680 HW2           1 RES     
    6312 OW           1.0120    36.3710   -43.8640 OW            1 RES     
    6313 HW1          1.6020    37.0730   -44.2600 HW1           1 RES     
    6314 HW2          1.5440    35.5400   -43.7000 HW2           1 RES     
    6315 OW          16.4150    28.0800   -35.6110 OW            1 RES     
    6316 HW1         15.8490    27.7510   -34.8560 HW1           1 RES     
    6317 HW2         16.6610    29.0370   -35.4520 HW2           1 RES     
    6318 OW           2.9740    26.9120   -46.6390 OW            1 RES     
    6319 HW1          2.9100    27.9090   -46.6550 HW1           1 RES     
    6320 HW2          3.5750    26.6040   -47.3780 HW2           1 RES     
    6321 OW          30.4160    13.4510   -44.0950 OW            1 RES     
    6322 HW1         29.8700    12.7290   -43.6700 HW1           1 RES     
    6323 HW2         31.1020    13.0410   -44.6960 HW2           1 RES     
    6324 OW          13.0010     0.7340   -32.9600 OW            1 RES     
    6325 HW1         12.0540     0.9780   -33.1660 HW1           1 RES     
    6326 HW2         13.1960    -0.1800   -33.3170 HW2           1 RES     
    6327 OW          14.0200    21.1780   -42.9130 OW            1 RES     
    6328 HW1         14.6450    20.4030   -42.8270 HW1           1 RES     
    6329 HW2         14.5460    22.0190   -43.0430 HW2           1 RES     
    6330 OW          35.3550    19.8490   -37.7670 OW            1 RES     
    6331 HW1         35.4840    19.3720   -36.8980 HW1           1 RES     
    6332 HW2         36.2050    19.8210   -38.2930 HW2           1 RES     
    6333 OW           3.5290     3.0210   -42.9040 OW            1 RES     
    6334 HW1          3.5600     3.7410   -43.5970 HW1           1 RES     
    6335 HW2          3.5940     3.4310   -41.9940 HW2           1 RES     
    6336 OW          10.8520    18.8670   -33.5290 OW            1 RES     
    6337 HW1         10.1970    18.1290   -33.6820 HW1           1 RES     
    6338 HW2         10.3630    19.7350   -33.4400 HW2           1 RES     
    6339 OW          19.2380     3.4100   -53.6030 OW            1 RES     
    6340 HW1         19.0050     2.4430   -53.5110 HW1           1 RES     
    6341 HW2         19.8110     3.6900   -52.8320 HW2           1 RES     
    6342 OW          19.7130    37.9830   -54.3040 OW            1 RES     
    6343 HW1         19.8910    38.3400   -53.3870 HW1           1 RES     
    6344 HW2         18.7300    37.8380   -54.4200 HW2           1 RES     
    6345 OW           3.6040    29.8220   -48.8140 OW            1 RES     
    6346 HW1          3.6010    28.8670   -48.5210 HW1           1 RES     
    6347 HW2          2.6940    30.0720   -49.1470 HW2           1 RES     
    6348 OW          32.7840    -1.9950   -31.8370 OW            1 RES     
    6349 HW1         33.1670    -1.1050   -32.0810 HW1           1 RES     
    6350 HW2         32.6650    -2.0480   -30.8460 HW2           1 RES     
    6351 OW           6.2600    13.3340   -37.6830 OW            1 RES     
    6352 HW1          6.4600    12.5510   -38.2700 HW1           1 RES     
    6353 HW2          5.7080    13.9980   -38.1880 HW2           1 RES     
    6354 OW          16.7230    31.5440   -37.9550 OW            1 RES     
    6355 HW1         15.7560    31.4150   -37.7400 HW1           1 RES     
    6356 HW2         17.1180    30.6750   -38.2540 HW2           1 RES     
    6357 OW          38.9790    13.8720   -50.3280 OW            1 RES     
    6358 HW1         38.0260    14.1010   -50.5210 HW1           1 RES     
    6359 HW2         39.1880    12.9680   -50.7010 HW2           1 RES     
    6360 OW          29.2740    32.4730   -52.2320 OW            1 RES     
    6361 HW1         28.9020    31.7330   -52.7920 HW1           1 RES     
    6362 HW2         30.1960    32.6980   -52.5470 HW2           1 RES     
    6363 OW          30.3430    -0.6650   -36.3460 OW            1 RES     
    6364 HW1         29.3660    -0.7750   -36.5240 HW1           1 RES     
    6365 HW2         30.8500    -1.3940   -36.8070 HW2           1 RES     
    6366 OW          31.3730    34.4480   -41.9670 OW            1 RES     
    6367 HW1         30.7670    35.1940   -41.6940 HW1           1 RES     
    6368 HW2         32.2300    34.8260   -42.3170 HW2           1 RES     
    6369 OW          34.8610    27.9440   -48.5660 OW            1 RES     
    6370 HW1         35.8500    27.8000   -48.5470 HW1           1 RES     
    6371 HW2         34.3950    27.0610   -48.6100 HW2           1 RES     
    6372 OW          38.4220    26.6830   -44.3900 OW            1 RES     
    6373 HW1         37.8540    25.9680   -43.9830 HW1           1 RES     
    6374 HW2         39.1880    26.2630   -44.8770 HW2           1 RES     
    6375 OW          28.2440    37.3410   -33.1310 OW            1 RES     
    6376 HW1         28.4600    37.6640   -32.2100 HW1           1 RES     
    6377 HW2         27.4300    36.7610   -33.0980 HW2           1 RES     
    6378 OW          32.3400     3.8450   -47.2310 OW            1 RES     
    6379 HW1         31.8880     2.9800   -47.4490 HW1           1 RES     
    6380 HW2         33.2290     3.6600   -46.8120 HW2           1 RES     
    6381 OW          25.9390    19.2370   -50.0930 OW            1 RES     
    6382 HW1         26.8590    19.6180   -50.0130 HW1           1 RES     
    6383 HW2         25.9990    18.2590   -50.2980 HW2           1 RES     
    6384 OW          21.7750    29.7850   -43.7020 OW            1 RES     
    6385 HW1         21.8210    29.9810   -42.7230 HW1           1 RES     
    6386 HW2         22.6270    29.3520   -43.9960 HW2           1 RES     
    6387 OW          15.1790     6.6220   -35.2840 OW            1 RES     
    6388 HW1         14.7820     7.4260   -35.7250 HW1           1 RES     
    6389 HW2         16.1760     6.6740   -35.3290 HW2           1 RES     
    6390 OW          31.1160    19.0360   -31.9230 OW            1 RES     
    6391 HW1         31.9720    19.5050   -32.1370 HW1           1 RES     
    6392 HW2         31.3100    18.0930   -31.6520 HW2           1 RES     
    6393 OW           1.4940    34.3040   -46.6000 OW            1 RES     
    6394 HW1          1.0850    33.4800   -46.2080 HW1           1 RES     
    6395 HW2          2.3690    34.0720   -47.0250 HW2           1 RES     
    6396 OW          26.8000     2.5250   -32.4720 OW            1 RES     
    6397 HW1         26.9770     3.3170   -33.0560 HW1           1 RES     
    6398 HW2         26.5260     2.8360   -31.5620 HW2           1 RES     
    6399 OW          13.5090    11.9410   -41.0280 OW            1 RES     
    6400 HW1         14.0120    12.7930   -41.1660 HW1           1 RES     
    6401 HW2         14.0140    11.3530   -40.3960 HW2           1 RES     
    6402 OW          12.5950     2.8390   -31.2300 OW            1 RES     
    6403 HW1         13.3720     2.6190   -31.8180 HW1           1 RES     
    6404 HW2         12.2190     1.9960   -30.8450 HW2           1 RES     
    6405 OW          33.1520    30.0170   -33.8350 OW            1 RES     
    6406 HW1         33.7230    29.8270   -34.6320 HW1           1 RES     
    6407 HW2         32.3700    29.3940   -33.8270 HW2           1 RES     
    6408 OW          38.7690     0.3610   -37.9230 OW            1 RES     
    6409 HW1         37.7740     0.4530   -37.9120 HW1           1 RES     
    6410 HW2         39.1880     1.2690   -37.9600 HW2           1 RES     
    6411 OW          28.6740    -0.1320   -34.5370 OW            1 RES     
    6412 HW1         28.2070    -1.0110   -34.6210 HW1           1 RES     
    6413 HW2         29.2810    -0.1500   -33.7430 HW2           1 RES     
    6414 OW           6.8800    28.6250   -31.6910 OW            1 RES     
    6415 HW1          6.5770    29.5650   -31.5320 HW1           1 RES     
    6416 HW2          6.0850    28.0180   -31.7120 HW2           1 RES     
    6417 OW           2.5530    35.3050   -36.4750 OW            1 RES     
    6418 HW1          2.9320    34.4480   -36.1280 HW1           1 RES     
    6419 HW2          1.7670    35.1100   -37.0620 HW2           1 RES     
    6420 OW          33.2680    30.3040   -49.3220 OW            1 RES     
    6421 HW1         34.1830    29.9020   -49.3070 HW1           1 RES     
    6422 HW2         32.6020    29.6280   -49.0050 HW2           1 RES     
    6423 OW          12.6900     2.9250   -36.1230 OW            1 RES     
    6424 HW1         11.9010     3.4070   -35.7430 HW1           1 RES     
    6425 HW2         12.8950     2.1240   -35.5600 HW2           1 RES     
    6426 OW          24.5170    20.0120   -48.1790 OW            1 RES     
    6427 HW1         23.5850    19.6530   -48.1310 HW1           1 RES     
    6428 HW2         24.5990    20.8080   -47.5800 HW2           1 RES     
    6429 OW          25.4980     7.8900   -36.4530 OW            1 RES     
    6430 HW1         24.8120     7.2530   -36.8030 HW1           1 RES     
    6431 HW2         25.6800     7.6890   -35.4900 HW2           1 RES     
    6432 OW           6.3990    30.8130   -41.2710 OW            1 RES     
    6433 HW1          6.7530    30.9570   -42.1940 HW1           1 RES     
    6434 HW2          5.4480    31.1200   -41.2260 HW2           1 RES     
    6435 OW          31.7560    13.1900   -48.3580 OW            1 RES     
    6436 HW1         30.8830    12.8160   -48.6670 HW1           1 RES     
    6437 HW2         32.3740    13.2830   -49.1390 HW2           1 RES     
    6438 OW          38.8540     1.3730   -50.2600 OW            1 RES     
    6439 HW1         38.0370     0.9510   -50.6520 HW1           1 RES     
    6440 HW2         38.8730     1.2090   -49.2730 HW2           1 RES     
    6441 OW          30.0190    15.9620   -36.8840 OW            1 RES     
    6442 HW1         30.9350    15.9100   -37.2790 HW1           1 RES     
    6443 HW2         29.7660    16.9200   -36.7490 HW2           1 RES     
    6444 OW          14.5990    35.1150   -53.8100 OW            1 RES     
    6445 HW1         14.5330    35.3540   -52.8420 HW1           1 RES     
    6446 HW2         13.9530    34.3800   -54.0170 HW2           1 RES     
    6447 OW           0.5660    -1.1740   -39.6330 OW            1 RES     
    6448 HW1          0.1200    -1.5650   -38.8280 HW1           1 RES     
    6449 HW2          1.0800    -1.8870   -40.1090 HW2           1 RES     
    6450 OW          17.3700     9.4490   -35.5540 OW            1 RES     
    6451 HW1         17.6130    10.3120   -35.9960 HW1           1 RES     
    6452 HW2         18.1030     8.7830   -35.6960 HW2           1 RES     
    6453 OW          29.2050    32.4670   -47.1700 OW            1 RES     
    6454 HW1         28.2320    32.6630   -47.0580 HW1           1 RES     
    6455 HW2         29.7430    33.2240   -46.7990 HW2           1 RES     
    6456 OW          23.0130    18.7770   -36.4240 OW            1 RES     
    6457 HW1         23.5510    18.0610   -36.8670 HW1           1 RES     
    6458 HW2         22.0730    18.4590   -36.2990 HW2           1 RES     
    6459 OW           2.6020    37.1160   -31.6360 OW            1 RES     
    6460 HW1          2.7620    36.4050   -30.9520 HW1           1 RES     
    6461 HW2          2.0200    37.8300   -31.2460 HW2           1 RES     
    6462 OW           1.8870    24.9970   -47.6500 OW            1 RES     
    6463 HW1          1.1390    24.7710   -47.0270 HW1           1 RES     
    6464 HW2          1.6640    25.8330   -48.1500 HW2           1 RES     
    6465 OW          25.3200     7.6290   -50.8730 OW            1 RES     
    6466 HW1         26.0580     8.2100   -51.2140 HW1           1 RES     
    6467 HW2         24.6590     7.4630   -51.6060 HW2           1 RES     
    6468 OW          17.0160    14.2150   -36.8540 OW            1 RES     
    6469 HW1         16.2800    14.8890   -36.9090 HW1           1 RES     
    6470 HW2         16.6270    13.3050   -36.7100 HW2           1 RES     
    6471 OW          17.0790    14.7890   -39.1930 OW            1 RES     
    6472 HW1         17.7360    14.0360   -39.2100 HW1           1 RES     
    6473 HW2         17.5710    15.6600   -39.1650 HW2           1 RES     
    6474 OW           9.9140    17.2050   -43.7440 OW            1 RES     
    6475 HW1          9.5340    17.9090   -43.1460 HW1           1 RES     
    6476 HW2         10.3480    17.6370   -44.5350 HW2           1 RES     
    6477 OW          20.3420    31.8140   -38.1950 OW            1 RES     
    6478 HW1         20.5440    30.8350   -38.1860 HW1           1 RES     
    6479 HW2         20.4780    32.1920   -37.2790 HW2           1 RES     
    6480 OW           2.7680    36.0780   -49.5080 OW            1 RES     
    6481 HW1          3.3870    35.4750   -50.0120 HW1           1 RES     
    6482 HW2          2.5270    36.8620   -50.0810 HW2           1 RES     
    6483 OW          27.8040    18.1160   -38.1860 OW            1 RES     
    6484 HW1         27.7610    18.7690   -38.9400 HW1           1 RES     
    6485 HW2         28.3890    18.4800   -37.4610 HW2           1 RES     
    6486 OW          29.0040    28.4430   -35.7080 OW            1 RES     
    6487 HW1         29.4700    27.5640   -35.6210 HW1           1 RES     
    6488 HW2         28.8910    28.8520   -34.8020 HW2           1 RES     
    6489 OW          15.9710    16.5540   -42.3900 OW            1 RES     
    6490 HW1         14.9890    16.3720   -42.3940 HW1           1 RES     
    6491 HW2         16.3000    16.5920   -41.4460 HW2           1 RES     
    6492 OW          33.8990    18.2140   -54.3990 OW            1 RES     
    6493 HW1         32.9490    18.5250   -54.4210 HW1           1 RES     
    6494 HW2         34.5090    19.0060   -54.3700 HW2           1 RES     
    6495 OW          15.3130    35.7830   -34.4310 OW            1 RES     
    6496 HW1         14.9560    36.7150   -34.3870 HW1           1 RES     
    6497 HW2         14.5790    35.1340   -34.2290 HW2           1 RES     
    6498 OW          12.0830    -0.0310   -40.7660 OW            1 RES     
    6499 HW1         11.3410    -0.6050   -40.4200 HW1           1 RES     
    6500 HW2         12.5150     0.4510   -40.0030 HW2           1 RES     
    6501 OW          23.2040     7.3240   -41.7750 OW            1 RES     
    6502 HW1         22.9100     8.2660   -41.9330 HW1           1 RES     
    6503 HW2         23.7970     7.2900   -40.9690 HW2           1 RES     
    6504 OW           6.7800    25.7000   -45.6460 OW            1 RES     
    6505 HW1          6.8680    24.7050   -45.6400 HW1           1 RES     
    6506 HW2          7.4720    26.1010   -45.0450 HW2           1 RES     
    6507 OW          12.9210    31.5050   -51.9140 OW            1 RES     
    6508 HW1         13.1600    32.3380   -51.4160 HW1           1 RES     
    6509 HW2         11.9870    31.5810   -52.2650 HW2           1 RES     
    6510 OW          33.5850    27.1390   -38.3380 OW            1 RES     
    6511 HW1         32.8990    27.8420   -38.5180 HW1           1 RES     
    6512 HW2         34.4870    27.5640   -38.2630 HW2           1 RES     
    6513 OW          11.9920     8.8250   -46.7790 OW            1 RES     
    6514 HW1         12.9310     8.4910   -46.7120 HW1           1 RES     
    6515 HW2         11.3640     8.0490   -46.8340 HW2           1 RES     
    6516 OW          15.4630    28.7550   -31.7360 OW            1 RES     
    6517 HW1         15.4090    29.2970   -30.8980 HW1           1 RES     
    6518 HW2         16.1940    28.0780   -31.6490 HW2           1 RES     
    6519 OW          30.7670     9.4670   -34.3130 OW            1 RES     
    6520 HW1         30.8450     8.7070   -34.9570 HW1           1 RES     
    6521 HW2         30.0390    10.0840   -34.6110 HW2           1 RES     
    6522 OW          14.8210     0.4040   -34.8590 OW            1 RES     
    6523 HW1         13.9900     0.1340   -35.3450 HW1           1 RES     
    6524 HW2         14.7370     1.3530   -34.5560 HW2           1 RES     
    6525 OW          32.8410     7.7410   -49.7390 OW            1 RES     
    6526 HW1         33.2840     8.6140   -49.9430 HW1           1 RES     
    6527 HW2         33.5050     7.0000   -49.8320 HW2           1 RES     
    6528 OW           0.2900    16.8330   -50.5750 OW            1 RES     
    6529 HW1          1.1960    17.2390   -50.6900 HW1           1 RES     
    6530 HW2         -0.3370    17.2170   -51.2530 HW2           1 RES     
    6531 OW          29.7760     4.4950   -46.6170 OW            1 RES     
    6532 HW1         29.1180     5.0630   -47.1120 HW1           1 RES     
    6533 HW2         29.3140     3.6830   -46.2600 HW2           1 RES     
    6534 OW           2.9100     7.7240   -39.0920 OW            1 RES     
    6535 HW1          2.5100     7.1090   -39.7720 HW1           1 RES     
    6536 HW2          2.3770     8.5690   -39.0520 HW2           1 RES     
    6537 OW          35.6720    11.0270   -44.6750 OW            1 RES     
    6538 HW1         36.4520    10.4230   -44.8340 HW1           1 RES     
    6539 HW2         34.8670    10.4800   -44.4450 HW2           1 RES     
    6540 OW          32.8330     5.8780   -48.0610 OW            1 RES     
    6541 HW1         33.3520     6.5100   -47.4870 HW1           1 RES     
    6542 HW2         33.4600     5.2420   -48.5100 HW2           1 RES     
    6543 OW           4.0950     5.1760   -30.8890 OW            1 RES     
    6544 HW1          3.6330     4.2900   -30.9220 HW1           1 RES     
    6545 HW2          4.9460     5.1280   -31.4120 HW2           1 RES     
    6546 OW           5.6070     5.9990   -34.2190 OW            1 RES     
    6547 HW1          4.9530     5.2440   -34.1690 HW1           1 RES     
    6548 HW2          5.1850     6.8300   -33.8550 HW2           1 RES     
    6549 OW          38.3280    23.8240   -43.7470 OW            1 RES     
    6550 HW1         39.1870    23.3170   -43.8080 HW1           1 RES     
    6551 HW2         38.1680    24.0960   -42.7980 HW2           1 RES     
    6552 OW          16.8230    16.7900   -48.1280 OW            1 RES     
    6553 HW1         16.4440    16.1500   -48.7950 HW1           1 RES     
    6554 HW2         17.8210    16.7910   -48.1950 HW2           1 RES     
    6555 OW          33.9960    32.5140   -35.1970 OW            1 RES     
    6556 HW1         33.2590    31.9130   -35.5040 HW1           1 RES     
    6557 HW2         33.7620    33.4640   -35.4070 HW2           1 RES     
    6558 OW           2.6700     1.2810   -48.4870 OW            1 RES     
    6559 HW1          2.2690     1.9510   -47.8640 HW1           1 RES     
    6560 HW2          3.6490     1.4610   -48.5860 HW2           1 RES     
    6561 OW          18.9340    26.4300   -33.8480 OW            1 RES     
    6562 HW1         18.0880    26.9000   -34.0960 HW1           1 RES     
    6563 HW2         19.2430    25.8710   -34.6180 HW2           1 RES     
    6564 OW           1.9950    30.4870   -35.0390 OW            1 RES     
    6565 HW1          2.8830    30.3940   -34.5890 HW1           1 RES     
    6566 HW2          1.3240    30.8390   -34.3850 HW2           1 RES     
    6567 OW          31.2340     2.6340   -42.4490 OW            1 RES     
    6568 HW1         30.5790     3.3880   -42.4220 HW1           1 RES     
    6569 HW2         32.0600     2.8920   -41.9460 HW2           1 RES     
    6570 OW          20.5910    22.4740   -39.9460 OW            1 RES     
    6571 HW1         20.4790    23.0870   -40.7270 HW1           1 RES     
    6572 HW2         21.5210    22.1070   -39.9390 HW2           1 RES     
    6573 OW          36.4880    26.5430   -40.0300 OW            1 RES     
    6574 HW1         37.2560    27.1450   -40.2500 HW1           1 RES     
    6575 HW2         35.6590    26.8840   -40.4730 HW2           1 RES     
    6576 OW          23.7890     9.5660   -40.3220 OW            1 RES     
    6577 HW1         23.7780    10.1980   -39.5480 HW1           1 RES     
    6578 HW2         24.7310     9.4300   -40.6300 HW2           1 RES     
    6579 OW          16.7640    12.2830   -46.0380 OW            1 RES     
    6580 HW1         15.7690    12.2820   -46.1330 HW1           1 RES     
    6581 HW2         17.0740    13.1990   -45.7830 HW2           1 RES     
    6582 OW          27.3320     6.5510   -47.1170 OW            1 RES     
    6583 HW1         28.1690     7.0320   -46.8600 HW1           1 RES     
    6584 HW2         26.5950     7.2140   -47.2550 HW2           1 RES     
    6585 OW          15.2660    14.6490   -45.8690 OW            1 RES     
    6586 HW1         15.2290    14.1250   -45.0190 HW1           1 RES     
    6587 HW2         14.3410    14.9290   -46.1290 HW2           1 RES     
    6588 OW          27.3890    37.8180   -52.1050 OW            1 RES     
    6589 HW1         27.7190    37.2470   -51.3540 HW1           1 RES     
    6590 HW2         26.8900    37.2520   -52.7610 HW2           1 RES     
    6591 OW          38.2220    35.7600   -52.5320 OW            1 RES     
    6592 HW1         37.7760    34.8760   -52.6690 HW1           1 RES     
    6593 HW2         39.1870    35.6160   -52.3110 HW2           1 RES     
    6594 OW          33.8200    28.3610   -43.4240 OW            1 RES     
    6595 HW1         34.6510    28.1850   -43.9510 HW1           1 RES     
    6596 HW2         33.5510    27.5310   -42.9360 HW2           1 RES     
    6597 OW          33.9240     7.8750   -40.4230 OW            1 RES     
    6598 HW1         33.0440     7.5400   -40.7580 HW1           1 RES     
    6599 HW2         33.8930     8.8710   -40.3420 HW2           1 RES     
    6600 OW          25.1670     1.5640   -40.7860 OW            1 RES     
    6601 HW1         26.1650     1.5110   -40.7560 HW1           1 RES     
    6602 HW2         24.8850     2.5220   -40.8370 HW2           1 RES     
    6603 OW           1.9050    22.8250   -53.0740 OW            1 RES     
    6604 HW1          2.5180    23.6090   -52.9900 HW1           1 RES     
    6605 HW2          2.4420    21.9820   -53.1050 HW2           1 RES     
    6606 OW           8.3350    21.9920   -45.8140 OW            1 RES     
    6607 HW1          7.8260    21.1500   -45.9910 HW1           1 RES     
    6608 HW2          8.4330    22.5080   -46.6650 HW2           1 RES     
    6609 OW           9.3560     3.1230   -32.5740 OW            1 RES     
    6610 HW1          9.6760     4.0470   -32.7810 HW1           1 RES     
    6611 HW2         10.0870     2.6100   -32.1230 HW2           1 RES     
    6612 OW           6.7750    32.3300   -33.0740 OW            1 RES     
    6613 HW1          7.7320    32.0420   -33.0750 HW1           1 RES     
    6614 HW2          6.7270    33.3290   -33.0750 HW2           1 RES     
    6615 OW           1.9590    10.4490   -35.7130 OW            1 RES     
    6616 HW1          2.1740    10.7240   -34.7770 HW1           1 RES     
    6617 HW2          2.1910    11.1930   -36.3410 HW2           1 RES     
    6618 OW          10.5110    33.3880   -32.9410 OW            1 RES     
    6619 HW1          9.5940    33.1970   -33.2910 HW1           1 RES     
    6620 HW2         11.0380    32.5380   -32.9060 HW2           1 RES     
    6621 OW          19.9780    22.4420   -47.2890 OW            1 RES     
    6622 HW1         20.9750    22.5000   -47.2730 HW1           1 RES     
    6623 HW2         19.5890    23.2640   -46.8730 HW2           1 RES     
    6624 OW          14.2110    27.5320   -39.9850 OW            1 RES     
    6625 HW1         14.2610    26.5540   -40.1860 HW1           1 RES     
    6626 HW2         13.2550    27.8010   -39.8720 HW2           1 RES     
    6627 OW          32.7020    17.8140   -38.5670 OW            1 RES     
    6628 HW1         33.4150    18.3850   -38.1620 HW1           1 RES     
    6629 HW2         32.7120    16.9110   -38.1370 HW2           1 RES     
    6630 OW          18.3030    18.1030   -37.1170 OW            1 RES     
    6631 HW1         19.1520    18.6140   -36.9860 HW1           1 RES     
    6632 HW2         18.5170    17.1520   -37.3430 HW2           1 RES     
    6633 OW          19.1800    31.7380   -51.3510 OW            1 RES     
    6634 HW1         18.8230    31.3200   -50.5160 HW1           1 RES     
    6635 HW2         18.4690    32.3000   -51.7740 HW2           1 RES     
    6636 OW           5.1740    10.7960   -36.6660 OW            1 RES     
    6637 HW1          4.3710    11.3620   -36.8500 HW1           1 RES     
    6638 HW2          5.9600    11.3840   -36.4730 HW2           1 RES     
    6639 OW          -0.6640    19.4920   -44.3380 OW            1 RES     
    6640 HW1          0.0190    20.2210   -44.3400 HW1           1 RES     
    6641 HW2         -0.4840    18.8670   -43.5780 HW2           1 RES     
    6642 OW          28.2190    26.2340   -48.6280 OW            1 RES     
    6643 HW1         27.7900    25.9130   -47.7840 HW1           1 RES     
    6644 HW2         28.2600    27.2330   -48.6230 HW2           1 RES     
    6645 OW          22.4920     5.4510   -32.5680 OW            1 RES     
    6646 HW1         21.8430     5.3440   -31.8160 HW1           1 RES     
    6647 HW2         22.2760     6.2830   -33.0800 HW2           1 RES     
    6648 OW          33.1580    20.0300   -52.4610 OW            1 RES     
    6649 HW1         33.1770    20.4450   -53.3700 HW1           1 RES     
    6650 HW2         34.0890    19.9690   -52.1020 HW2           1 RES     
    6651 OW           7.3350    36.6180   -43.7400 OW            1 RES     
    6652 HW1          6.4880    36.7700   -43.2320 HW1           1 RES     
    6653 HW2          8.1180    36.7490   -43.1310 HW2           1 RES     
    6654 OW          36.0050    26.0040   -50.5470 OW            1 RES     
    6655 HW1         36.3930    25.0830   -50.5690 HW1           1 RES     
    6656 HW2         35.0070    25.9460   -50.5420 HW2           1 RES     
    6657 OW          27.0640    35.2210   -51.9330 OW            1 RES     
    6658 HW1         26.2840    34.6340   -51.7200 HW1           1 RES     
    6659 HW2         27.9110    34.6970   -51.8420 HW2           1 RES     
    6660 OW           4.3350    29.7500   -54.1440 OW            1 RES     
    6661 HW1          3.8720    30.6310   -54.0560 HW1           1 RES     
    6662 HW2          3.7990    29.0430   -53.6820 HW2           1 RES     
    6663 OW          17.1530     1.9880   -52.3850 OW            1 RES     
    6664 HW1         16.5290     1.2380   -52.1640 HW1           1 RES     
    6665 HW2         16.9470     2.7750   -51.8030 HW2           1 RES     
    6666 OW          26.7300    28.7540   -49.0580 OW            1 RES     
    6667 HW1         26.1310    28.2590   -49.6870 HW1           1 RES     
    6668 HW2         26.4930    29.7260   -49.0670 HW2           1 RES     
    6669 OW          24.7020     2.0190   -42.9710 OW            1 RES     
    6670 HW1         23.9500     1.4640   -42.6160 HW1           1 RES     
    6671 HW2         25.2840     1.4560   -43.5580 HW2           1 RES     
    6672 OW          25.7880    17.9960   -42.8390 OW            1 RES     
    6673 HW1         25.3210    18.1440   -41.9680 HW1           1 RES     
    6674 HW2         26.0470    18.8780   -43.2330 HW2           1 RES     
    6675 OW          27.7010    24.0610   -44.0830 OW            1 RES     
    6676 HW1         27.6000    25.0290   -43.8580 HW1           1 RES     
    6677 HW2         27.9720    23.5540   -43.2640 HW2           1 RES     
    6678 OW          11.0540    11.6850   -42.9610 OW            1 RES     
    6679 HW1         12.0340    11.5720   -42.8030 HW1           1 RES     
    6680 HW2         10.8280    12.6600   -42.9670 HW2           1 RES     
    6681 OW          27.9740    32.3260   -38.3100 OW            1 RES     
    6682 HW1         28.5340    33.0500   -37.9090 HW1           1 RES     
    6683 HW2         28.1790    32.2470   -39.2860 HW2           1 RES     
    6684 OW          34.4680    28.8430   -53.0550 OW            1 RES     
    6685 HW1         33.6250    29.2070   -53.4500 HW1           1 RES     
    6686 HW2         35.0390    29.5990   -52.7330 HW2           1 RES     
    6687 OW          15.2780    29.3140   -38.1940 OW            1 RES     
    6688 HW1         15.5650    29.3980   -39.1470 HW1           1 RES     
    6689 HW2         14.9220    28.3930   -38.0320 HW2           1 RES     
    6690 OW          13.8590     8.2580   -42.7660 OW            1 RES     
    6691 HW1         13.7050     9.0200   -43.3940 HW1           1 RES     
    6692 HW2         14.8410     8.0960   -42.6710 HW2           1 RES     
    6693 OW           8.1410    10.8760   -41.2700 OW            1 RES     
    6694 HW1          7.7050    10.1320   -41.7760 HW1           1 RES     
    6695 HW2          7.4380    11.4580   -40.8610 HW2           1 RES     
    6696 OW           6.6340    20.5030   -41.4180 OW            1 RES     
    6697 HW1          7.5600    20.1330   -41.3600 HW1           1 RES     
    6698 HW2          6.6680    21.5010   -41.3650 HW2           1 RES     
    6699 OW          15.9850    18.1950   -50.5320 OW            1 RES     
    6700 HW1         16.4710    19.0680   -50.4940 HW1           1 RES     
    6701 HW2         16.6460    17.4460   -50.5620 HW2           1 RES     
    6702 OW          25.3880    27.6130   -46.7230 OW            1 RES     
    6703 HW1         26.1410    28.2230   -46.9670 HW1           1 RES     
    6704 HW2         25.7470    26.7010   -46.5260 HW2           1 RES     
    6705 OW           4.0870     8.0300   -48.5350 OW            1 RES     
    6706 HW1          3.1070     7.9000   -48.3870 HW1           1 RES     
    6707 HW2          4.5850     7.7940   -47.7000 HW2           1 RES     
    6708 OW           3.2210    11.3160   -40.6040 OW            1 RES     
    6709 HW1          2.6500    10.5340   -40.8540 HW1           1 RES     
    6710 HW2          2.6510    12.1340   -40.5250 HW2           1 RES     
    6711 OW           7.5100    17.4620   -48.0300 OW            1 RES     
    6712 HW1          7.4250    17.7520   -48.9830 HW1           1 RES     
    6713 HW2          6.6010    17.2710   -47.6570 HW2           1 RES     
    6714 OW          22.2590    36.2350   -47.5590 OW            1 RES     
    6715 HW1         23.2460    36.0790   -47.5700 HW1           1 RES     
    6716 HW2         21.7880    35.4130   -47.8790 HW2           1 RES     
    6717 OW          -0.2350    19.0900   -52.8610 OW            1 RES     
    6718 HW1         -1.0050    19.6700   -52.5960 HW1           1 RES     
    6719 HW2         -0.5760    18.2800   -53.3390 HW2           1 RES     
    6720 OW          10.5510    24.7780   -43.5340 OW            1 RES     
    6721 HW1         10.7790    25.5790   -42.9820 HW1           1 RES     
    6722 HW2         11.3880    24.3900   -43.9220 HW2           1 RES     
    6723 OW          -0.6880    33.6520   -41.5760 OW            1 RES     
    6724 HW1          0.1660    34.1640   -41.6620 HW1           1 RES     
    6725 HW2         -0.7110    32.9220   -42.2600 HW2           1 RES     
    6726 OW          23.1690    12.5130   -31.5770 OW            1 RES     
    6727 HW1         22.9120    13.1530   -30.8530 HW1           1 RES     
    6728 HW2         22.3530    12.2460   -32.0910 HW2           1 RES     
    6729 OW          32.4890    24.7620   -49.0790 OW            1 RES     
    6730 HW1         32.0030    25.3840   -48.4660 HW1           1 RES     
    6731 HW2         33.3950    25.1330   -49.2820 HW2           1 RES     
    6732 OW          10.4100    15.3060   -31.9750 OW            1 RES     
    6733 HW1          9.7990    15.6530   -31.2640 HW1           1 RES     
    6734 HW2          9.9850    14.5190   -32.4240 HW2           1 RES     
    6735 OW          20.6680    17.3850   -40.9210 OW            1 RES     
    6736 HW1         21.3910    16.7060   -41.0520 HW1           1 RES     
    6737 HW2         19.8220    16.9240   -40.6550 HW2           1 RES     
    6738 OW          15.7890    35.7730   -30.8510 OW            1 RES     
    6739 HW1         16.5700    36.3960   -30.8700 HW1           1 RES     
    6740 HW2         14.9400    36.3020   -30.8460 HW2           1 RES     
    6741 OW          18.5430    28.8450   -53.7720 OW            1 RES     
    6742 HW1         19.3840    29.2060   -54.1740 HW1           1 RES     
    6743 HW2         17.7690    29.0630   -54.3670 HW2           1 RES     
    6744 OW          24.0380    29.9370   -49.7820 OW            1 RES     
    6745 HW1         24.3270    29.3380   -49.0360 HW1           1 RES     
    6746 HW2         24.6830    30.6960   -49.8700 HW2           1 RES     
    6747 OW           5.8840     2.8060   -35.1980 OW            1 RES     
    6748 HW1          4.9910     3.2270   -35.0470 HW1           1 RES     
    6749 HW2          5.7650     1.8320   -35.3940 HW2           1 RES     
    6750 OW          26.1300    22.1890   -51.8240 OW            1 RES     
    6751 HW1         25.4220    22.7800   -52.2090 HW1           1 RES     
    6752 HW2         25.8010    21.2450   -51.8020 HW2           1 RES     
    6753 OW          24.7570     6.0340   -46.1140 OW            1 RES     
    6754 HW1         24.8180     5.4220   -46.9030 HW1           1 RES     
    6755 HW2         25.2350     5.6250   -45.3370 HW2           1 RES     
    6756 OW          14.7110    30.3160   -44.2600 OW            1 RES     
    6757 HW1         15.5900    30.7910   -44.2690 HW1           1 RES     
    6758 HW2         14.4900    30.0380   -43.3250 HW2           1 RES     
    6759 OW          12.3400    14.0140   -40.3400 OW            1 RES     
    6760 HW1         11.4860    13.5760   -40.0590 HW1           1 RES     
    6761 HW2         12.1890    14.5260   -41.1860 HW2           1 RES     
    6762 OW          19.2210    11.6000   -34.7590 OW            1 RES     
    6763 HW1         19.5510    10.6570   -34.7620 HW1           1 RES     
    6764 HW2         20.0020    12.2260   -34.7590 HW2           1 RES     
    6765 OW          15.2010    32.4120   -45.9010 OW            1 RES     
    6766 HW1         15.1460    33.1930   -45.2800 HW1           1 RES     
    6767 HW2         14.2910    32.2070   -46.2620 HW2           1 RES     
    6768 OW          35.3710    19.0330   -49.6280 OW            1 RES     
    6769 HW1         36.3100    18.9100   -49.9470 HW1           1 RES     
    6770 HW2         35.2680    18.6150   -48.7250 HW2           1 RES     
    6771 OW           6.5740    17.1520   -43.9340 OW            1 RES     
    6772 HW1          5.6810    16.8160   -44.2330 HW1           1 RES     
    6773 HW2          6.4740    17.6440   -43.0690 HW2           1 RES     
    6774 OW          38.1520    21.3360   -33.4240 OW            1 RES     
    6775 HW1         38.6870    22.0120   -33.9280 HW1           1 RES     
    6776 HW2         37.3980    21.0120   -33.9960 HW2           1 RES     
    6777 OW          16.0000     1.7880   -37.4390 OW            1 RES     
    6778 HW1         15.6060     2.4610   -36.8130 HW1           1 RES     
    6779 HW2         15.3690     1.0190   -37.5420 HW2           1 RES     
    6780 OW          29.3220    33.6180   -50.1060 OW            1 RES     
    6781 HW1         28.3590    33.3540   -50.1450 HW1           1 RES     
    6782 HW2         29.8860    32.8030   -49.9760 HW2           1 RES     
    6783 OW          15.6030    30.9890   -48.3920 OW            1 RES     
    6784 HW1         15.8600    31.8320   -47.9200 HW1           1 RES     
    6785 HW2         16.4160    30.5770   -48.8050 HW2           1 RES     
    6786 OW          15.9440    -0.6430   -33.0710 OW            1 RES     
    6787 HW1         16.7010    -1.2860   -33.1830 HW1           1 RES     
    6788 HW2         15.1130    -1.1440   -32.8310 HW2           1 RES     
    6789 OW           3.5030    19.6840   -34.3390 OW            1 RES     
    6790 HW1          4.0880    19.0210   -33.8730 HW1           1 RES     
    6791 HW2          4.0140    20.1140   -35.0840 HW2           1 RES     
    6792 OW          11.2310     0.4170   -44.6340 OW            1 RES     
    6793 HW1         10.4550     0.9640   -44.3230 HW1           1 RES     
    6794 HW2         11.4320    -0.2920   -43.9580 HW2           1 RES     
    6795 OW           3.3990    13.5090   -50.0390 OW            1 RES     
    6796 HW1          4.0740    13.4650   -49.3030 HW1           1 RES     
    6797 HW2          2.5510    13.9080   -49.6900 HW2           1 RES     
    6798 OW          12.3810    27.1130   -44.5830 OW            1 RES     
    6799 HW1         12.7620    27.9590   -44.9550 HW1           1 RES     
    6800 HW2         13.1230    26.4760   -44.3720 HW2           1 RES     
    6801 OW          23.2980    23.8810   -41.6030 OW            1 RES     
    6802 HW1         22.3410    24.1190   -41.4430 HW1           1 RES     
    6803 HW2         23.6830    23.4700   -40.7770 HW2           1 RES     
    6804 OW          24.8830    16.5190   -35.0270 OW            1 RES     
    6805 HW1         25.7510    16.0260   -35.0060 HW1           1 RES     
    6806 HW2         25.0340    17.4730   -34.7650 HW2           1 RES     
    6807 OW           9.3150    16.4200   -46.5400 OW            1 RES     
    6808 HW1          9.7140    15.7030   -45.9680 HW1           1 RES     
    6809 HW2          8.4130    16.6660   -46.1850 HW2           1 RES     
    6810 OW          38.4880    -0.2430   -43.8560 OW            1 RES     
    6811 HW1         39.1880     0.4290   -44.0930 HW1           1 RES     
    6812 HW2         38.2650    -0.7930   -44.6610 HW2           1 RES     
    6813 OW          33.3610     5.7300   -36.7850 OW            1 RES     
    6814 HW1         32.9360     4.8260   -36.7870 HW1           1 RES     
    6815 HW2         34.3540     5.6320   -36.7050 HW2           1 RES     
    6816 OW          36.1130    13.2530   -33.8340 OW            1 RES     
    6817 HW1         35.4370    13.6980   -33.2480 HW1           1 RES     
    6818 HW2         35.7130    12.4310   -34.2400 HW2           1 RES     
    6819 OW          -0.4880    36.7230   -31.3030 OW            1 RES     
    6820 HW1         -0.1530    35.8370   -30.9850 HW1           1 RES     
    6821 HW2         -0.1570    36.8920   -32.2310 HW2           1 RES     
    6822 OW           9.4480    13.3070   -35.9560 OW            1 RES     
    6823 HW1          9.5810    14.1530   -35.4400 HW1           1 RES     
    6824 HW2          8.6500    12.8200   -35.6000 HW2           1 RES     
    6825 OW          27.2160    26.7180   -50.9180 OW            1 RES     
    6826 HW1         26.4960    26.2190   -51.3990 HW1           1 RES     
    6827 HW2         28.0720    26.2030   -50.9710 HW2           1 RES     
    6828 OW          10.9190    17.5380   -52.2630 OW            1 RES     
    6829 HW1         10.8670    18.4880   -52.5670 HW1           1 RES     
    6830 HW2         10.2290    17.3760   -51.5560 HW2           1 RES     
    6831 OW          21.9540     4.7960   -43.7030 OW            1 RES     
    6832 HW1         21.3360     5.5710   -43.8310 HW1           1 RES     
    6833 HW2         22.8700     5.1310   -43.4840 HW2           1 RES     
    6834 OW           8.4590    24.0880   -39.4720 OW            1 RES     
    6835 HW1          9.0770    24.5600   -40.0990 HW1           1 RES     
    6836 HW2          8.6210    24.4080   -38.5380 HW2           1 RES     
    6837 OW          28.6110    13.9300   -46.7970 OW            1 RES     
    6838 HW1         27.8720    13.4370   -46.3390 HW1           1 RES     
    6839 HW2         29.4850    13.6900   -46.3740 HW2           1 RES     
    6840 OW          23.6490    24.0800   -32.1680 OW            1 RES     
    6841 HW1         22.6700    24.2410   -32.0500 HW1           1 RES     
    6842 HW2         23.8410    23.1030   -32.0680 HW2           1 RES     
    6843 OW          39.1870    11.8950   -53.3170 OW            1 RES     
    6844 HW1         39.1360    11.5480   -52.3810 HW1           1 RES     
    6845 HW2         39.1790    11.1280   -53.9590 HW2           1 RES     
    6846 OW          19.5110    17.7900   -52.3140 OW            1 RES     
    6847 HW1         18.9070    17.3540   -51.6470 HW1           1 RES     
    6848 HW2         20.1110    18.4390   -51.8470 HW2           1 RES     
    6849 OW           5.0700    21.3580   -33.4530 OW            1 RES     
    6850 HW1          4.8470    22.0310   -32.7480 HW1           1 RES     
    6851 HW2          6.0150    21.4880   -33.7520 HW2           1 RES     
    6852 OW          10.9190    33.4570   -41.4420 OW            1 RES     
    6853 HW1         10.6020    34.4010   -41.5310 HW1           1 RES     
    6854 HW2         11.9190    33.4420   -41.4110 HW2           1 RES     
    6855 OW          31.2470    13.8710   -51.4080 OW            1 RES     
    6856 HW1         30.5430    14.3160   -51.9600 HW1           1 RES     
    6857 HW2         31.0040    12.9110   -51.2660 HW2           1 RES     
    6858 OW          21.3900     9.1050   -48.4430 OW            1 RES     
    6859 HW1         22.3560     9.2680   -48.2440 HW1           1 RES     
    6860 HW2         21.1940     8.1270   -48.3670 HW2           1 RES     
    6861 OW          18.1210    23.5620   -49.0470 OW            1 RES     
    6862 HW1         19.0020    23.0990   -49.1470 HW1           1 RES     
    6863 HW2         18.2360    24.5400   -49.2240 HW2           1 RES     
    6864 OW          -0.1300    17.3120   -38.7140 OW            1 RES     
    6865 HW1          0.3230    18.0870   -38.2750 HW1           1 RES     
    6866 HW2          0.3840    16.4750   -38.5300 HW2           1 RES     
    6867 OW          21.4870    33.8330   -42.9270 OW            1 RES     
    6868 HW1         20.6390    33.3310   -42.7600 HW1           1 RES     
    6869 HW2         22.2610    33.2010   -42.9000 HW2           1 RES     
    6870 OW          32.4410    13.4890   -42.1780 OW            1 RES     
    6871 HW1         32.2460    14.0120   -43.0070 HW1           1 RES     
    6872 HW2         33.1310    12.7930   -42.3760 HW2           1 RES     
    6873 OW          24.5940     4.6170   -36.1000 OW            1 RES     
    6874 HW1         23.9750     5.2300   -36.5910 HW1           1 RES     
    6875 HW2         24.8610     5.0370   -35.2330 HW2           1 RES     
    6876 OW          -0.1700    37.2810   -46.4500 OW            1 RES     
    6877 HW1         -0.0340    36.5410   -45.7920 HW1           1 RES     
    6878 HW2         -0.9430    37.8470   -46.1610 HW2           1 RES     
    6879 OW          27.9840    19.6570   -33.6100 OW            1 RES     
    6880 HW1         28.9610    19.7830   -33.7810 HW1           1 RES     
    6881 HW2         27.5640    20.5400   -33.4010 HW2           1 RES     
    6882 OW          22.3710    -1.8370   -39.6480 OW            1 RES     
    6883 HW1         21.4490    -1.6930   -39.2910 HW1           1 RES     
    6884 HW2         22.3220    -2.0480   -40.6240 HW2           1 RES     
    6885 OW          20.6240     9.0800   -35.9870 OW            1 RES     
    6886 HW1         21.4520     8.6750   -36.3730 HW1           1 RES     
    6887 HW2         19.9890     9.3090   -36.7240 HW2           1 RES     
    6888 OW          16.4150     9.7140   -30.8920 OW            1 RES     
    6889 HW1         17.2630     9.1880   -30.8460 HW1           1 RES     
    6890 HW2         16.6260    10.6920   -30.8790 HW2           1 RES     
    6891 OW          15.5130    34.9870   -43.5300 OW            1 RES     
    6892 HW1         16.4820    34.7700   -43.6410 HW1           1 RES     
    6893 HW2         15.3790    35.9730   -43.6290 HW2           1 RES     
    6894 OW           5.2830    -0.5320   -43.2280 OW            1 RES     
    6895 HW1          6.0960    -1.0690   -43.4510 HW1           1 RES     
    6896 HW2          4.4670    -1.0960   -43.3530 HW2           1 RES     
    6897 OW          15.5300    31.5000   -40.3470 OW            1 RES     
    6898 HW1         15.0560    30.7660   -40.8320 HW1           1 RES     
    6899 HW2         16.5040    31.2810   -40.2780 HW2           1 RES     
    6900 OW          32.6870    24.1100   -40.8720 OW            1 RES     
    6901 HW1         32.7660    23.1450   -40.6260 HW1           1 RES     
    6902 HW2         31.9990    24.5470   -40.2940 HW2           1 RES     
    6903 OW          10.1230    28.6620   -42.2660 OW            1 RES     
    6904 HW1          9.5480    29.4780   -42.2170 HW1           1 RES     
    6905 HW2          9.9380    28.1730   -43.1180 HW2           1 RES     
    6906 OW          34.2130    29.8220   -45.4370 OW            1 RES     
    6907 HW1         34.8210    30.5970   -45.6030 HW1           1 RES     
    6908 HW2         33.3050    30.1580   -45.1860 HW2           1 RES     
    6909 OW           1.7730    -1.0570   -47.8950 OW            1 RES     
    6910 HW1          1.1740    -0.2760   -48.0630 HW1           1 RES     
    6911 HW2          2.6710    -0.7320   -47.5990 HW2           1 RES     
    6912 OW           3.5060    33.5570   -38.4320 OW            1 RES     
    6913 HW1          3.8620    33.2340   -39.3080 HW1           1 RES     
    6914 HW2          3.9050    34.4490   -38.2180 HW2           1 RES     
    6915 OW          18.1430    35.9640   -36.1810 OW            1 RES     
    6916 HW1         18.7150    35.1530   -36.0640 HW1           1 RES     
    6917 HW2         17.2600    35.8170   -35.7340 HW2           1 RES     
    6918 OW           9.4010    26.4660   -37.1490 OW            1 RES     
    6919 HW1          9.3500    27.4640   -37.1710 HW1           1 RES     
    6920 HW2         10.3360    26.1750   -37.3520 HW2           1 RES     
    6921 OW          23.0590    35.3610   -52.5640 OW            1 RES     
    6922 HW1         23.9660    35.7770   -52.5170 HW1           1 RES     
    6923 HW2         23.0450    34.6700   -53.2880 HW2           1 RES     
    6924 OW          10.0730    24.9020   -49.1710 OW            1 RES     
    6925 HW1         10.0670    24.0440   -48.6580 HW1           1 RES     
    6926 HW2         10.9570    25.3560   -49.0520 HW2           1 RES     
    6927 OW          21.1990    25.0770   -43.7530 OW            1 RES     
    6928 HW1         20.4090    24.4660   -43.7240 HW1           1 RES     
    6929 HW2         22.0400    24.5360   -43.7630 HW2           1 RES     
    6930 OW           6.8660    25.6340   -35.4400 OW            1 RES     
    6931 HW1          7.6870    26.0470   -35.8320 HW1           1 RES     
    6932 HW2          6.0560    25.9990   -35.9000 HW2           1 RES     
    6933 OW          21.0000     5.6470   -53.6710 OW            1 RES     
    6934 HW1         21.8080     5.2410   -54.0950 HW1           1 RES     
    6935 HW2         21.2840     6.3010   -52.9690 HW2           1 RES     
    6936 OW          27.8630    19.3140   -52.1440 OW            1 RES     
    6937 HW1         28.7710    19.0360   -51.8340 HW1           1 RES     
    6938 HW2         27.9480    20.0810   -52.7810 HW2           1 RES     
    6939 OW          29.1220    22.2080   -48.9770 OW            1 RES     
    6940 HW1         28.2970    22.7030   -48.7060 HW1           1 RES     
    6941 HW2         28.9550    21.2240   -48.9220 HW2           1 RES     
    6942 OW          27.1160    11.5450   -48.0810 OW            1 RES     
    6943 HW1         26.8070    12.4940   -48.0170 HW1           1 RES     
    6944 HW2         28.1160    11.5190   -48.0770 HW2           1 RES     
    6945 OW          10.6630     8.0700   -34.6730 OW            1 RES     
    6946 HW1         11.3760     8.0930   -33.9720 HW1           1 RES     
    6947 HW2          9.8480     7.6230   -34.3050 HW2           1 RES     
    6948 OW          10.2650    34.5060   -45.0950 OW            1 RES     
    6949 HW1          9.5990    35.2180   -45.3130 HW1           1 RES     
    6950 HW2          9.8730    33.8760   -44.4230 HW2           1 RES     
    6951 OW          13.8990    37.5670   -44.6070 OW            1 RES     
    6952 HW1         14.5290    38.3410   -44.5500 HW1           1 RES     
    6953 HW2         13.1630    37.7830   -45.2490 HW2           1 RES     
    6954 OW          17.9630     1.6470   -47.6580 OW            1 RES     
    6955 HW1         18.7560     1.9770   -47.1460 HW1           1 RES     
    6956 HW2         18.1340     1.7470   -48.6390 HW2           1 RES     
    6957 OW          25.7480     8.1010   -38.8960 OW            1 RES     
    6958 HW1         24.7580     8.1930   -38.7920 HW1           1 RES     
    6959 HW2         26.1730     9.0060   -38.8600 HW2           1 RES     
    6960 OW          17.0820    29.8740   -46.5450 OW            1 RES     
    6961 HW1         17.0500    29.1390   -47.2220 HW1           1 RES     
    6962 HW2         16.1510    30.1380   -46.2930 HW2           1 RES     
    6963 OW          10.6590     2.2870   -41.6040 OW            1 RES     
    6964 HW1         11.0630     1.9570   -42.4560 HW1           1 RES     
    6965 HW2         11.2570     2.0510   -40.8380 HW2           1 RES     
    6966 OW          20.3300    15.5910   -31.7900 OW            1 RES     
    6967 HW1         21.0600    15.1250   -31.2910 HW1           1 RES     
    6968 HW2         20.2760    16.5440   -31.4900 HW2           1 RES     
    6969 OW          23.6960    27.4440   -45.0760 OW            1 RES     
    6970 HW1         24.3340    28.1710   -44.8260 HW1           1 RES     
    6971 HW2         24.1570    26.5580   -45.0130 HW2           1 RES     
    6972 OW          -1.0050    30.7110   -33.2140 OW            1 RES     
    6973 HW1         -0.1310    30.7930   -32.7360 HW1           1 RES     
    6974 HW2         -0.9540    29.9650   -33.8770 HW2           1 RES     
    6975 OW          30.2150    10.6970   -49.2590 OW            1 RES     
    6976 HW1         30.7850    10.6300   -48.4410 HW1           1 RES     
    6977 HW2         30.7540    11.0780   -50.0110 HW2           1 RES     
    6978 OW          17.7500    23.6490   -45.4780 OW            1 RES     
    6979 HW1         17.1050    23.5490   -44.7210 HW1           1 RES     
    6980 HW2         18.5060    24.2400   -45.1950 HW2           1 RES     
    6981 OW          25.9360    35.8530   -43.6020 OW            1 RES     
    6982 HW1         26.0430    35.2130   -44.3620 HW1           1 RES     
    6983 HW2         26.7590    35.8370   -43.0340 HW2           1 RES     
    6984 OW           5.4620    -1.2710   -31.4180 OW            1 RES     
    6985 HW1          4.9800    -2.0480   -31.8220 HW1           1 RES     
    6986 HW2          6.4140    -1.5230   -31.2420 HW2           1 RES     
    6987 OW          36.4220     1.2790   -40.6710 OW            1 RES     
    6988 HW1         35.6420     0.7510   -41.0070 HW1           1 RES     
    6989 HW2         36.2720     2.2500   -40.8550 HW2           1 RES     
    6990 OW          31.1240     1.3530   -45.0870 OW            1 RES     
    6991 HW1         30.8970     2.1240   -45.6810 HW1           1 RES     
    6992 HW2         30.9020     0.4960   -45.5510 HW2           1 RES     
    6993 OW          25.3370    30.3590   -33.6790 OW            1 RES     
    6994 HW1         24.4550    30.0220   -33.3520 HW1           1 RES     
    6995 HW2         25.3490    30.3480   -34.6790 HW2           1 RES     
    6996 OW          30.0540    14.7260   -38.9690 OW            1 RES     
    6997 HW1         30.8990    14.8990   -39.4750 HW1           1 RES     
    6998 HW2         29.5680    13.9570   -39.3840 HW2           1 RES     
    6999 OW           2.1420    17.1540   -39.8380 OW            1 RES     
    7000 HW1          2.4390    17.1760   -38.8840 HW1           1 RES     
    7001 HW2          1.9170    18.0800   -40.1400 HW2           1 RES     
    7002 OW          27.5250    27.2700   -45.0390 OW            1 RES     
    7003 HW1         28.2490    27.0660   -44.3800 HW1           1 RES     
    7004 HW2         27.8910    27.2030   -45.9680 HW2           1 RES     
    7005 OW          36.0660    25.6050   -48.3590 OW            1 RES     
    7006 HW1         35.3930    25.3410   -47.6690 HW1           1 RES     
    7007 HW2         36.8780    25.0280   -48.2720 HW2           1 RES     
    7008 OW           3.6980     9.5660   -46.0500 OW            1 RES     
    7009 HW1          3.9970     8.9070   -45.3600 HW1           1 RES     
    7010 HW2          2.9600     9.1670   -46.5940 HW2           1 RES     
    7011 OW          33.3650    -0.4970   -34.7130 OW            1 RES     
    7012 HW1         32.6350    -0.9580   -35.2160 HW1           1 RES     
    7013 HW2         33.6610     0.3120   -35.2210 HW2           1 RES     
    7014 OW          11.0830    27.9650   -54.1260 OW            1 RES     
    7015 HW1         10.5080    28.7300   -54.4140 HW1           1 RES     
    7016 HW2         10.7810    27.6390   -53.2300 HW2           1 RES     
    7017 OW          34.0570    36.2710   -33.8270 OW            1 RES     
    7018 HW1         33.4150    36.7010   -33.1930 HW1           1 RES     
    7019 HW2         34.4110    36.9580   -34.4620 HW2           1 RES     
    7020 OW          10.5740     4.7080   -40.0920 OW            1 RES     
    7021 HW1         11.3530     4.0870   -40.0100 HW1           1 RES     
    7022 HW2         10.2970     4.7710   -41.0500 HW2           1 RES     
    7023 OW          22.2960    16.7890   -32.8180 OW            1 RES     
    7024 HW1         23.0900    16.9820   -32.2420 HW1           1 RES     
    7025 HW2         22.2790    15.8150   -33.0460 HW2           1 RES     
    7026 OW          33.4100    -1.0360   -39.5000 OW            1 RES     
    7027 HW1         32.8740    -1.3860   -40.2680 HW1           1 RES     
    7028 HW2         33.2780    -0.0480   -39.4240 HW2           1 RES     
    7029 OW          14.3280    21.8870   -31.5340 OW            1 RES     
    7030 HW1         14.2640    22.3950   -32.3920 HW1           1 RES     
    7031 HW2         14.7850    22.4510   -30.8460 HW2           1 RES     
    7032 OW          35.0770     0.2820   -32.7730 OW            1 RES     
    7033 HW1         35.1010    -0.6580   -33.1130 HW1           1 RES     
    7034 HW2         34.1660     0.6670   -32.9210 HW2           1 RES     
    7035 OW           8.5060     5.3970   -34.5360 OW            1 RES     
    7036 HW1          8.0870     6.2750   -34.3070 HW1           1 RES     
    7037 HW2          7.7910     4.7130   -34.6800 HW2           1 RES     
    7038 OW          27.2700    15.4480   -37.7870 OW            1 RES     
    7039 HW1         26.6870    14.8440   -37.2430 HW1           1 RES     
    7040 HW2         27.7690    14.9080   -38.4650 HW2           1 RES     
    7041 OW           3.1390    17.2800   -45.5330 OW            1 RES     
    7042 HW1          2.1940    16.9560   -45.5810 HW1           1 RES     
    7043 HW2          3.7620    16.4980   -45.5560 HW2           1 RES     
    7044 OW          -0.2700    26.4560   -46.9010 OW            1 RES     
    7045 HW1         -1.0030    27.1310   -46.8250 HW1           1 RES     
    7046 HW2          0.5750    26.8370   -46.5240 HW2           1 RES     
    7047 OW          16.6880    34.2070   -33.6950 OW            1 RES     
    7048 HW1         16.3340    33.8380   -34.5540 HW1           1 RES     
    7049 HW2         17.6770    34.3350   -33.7700 HW2           1 RES     
    7050 OW           2.1530    15.5420   -48.2030 OW            1 RES     
    7051 HW1          2.0830    16.0890   -49.0360 HW1           1 RES     
    7052 HW2          3.0390    15.7060   -47.7690 HW2           1 RES     
    7053 OW          35.5020     6.3980   -42.4590 OW            1 RES     
    7054 HW1         36.2440     5.7290   -42.4810 HW1           1 RES     
    7055 HW2         35.0550     6.3720   -41.5640 HW2           1 RES     
    7056 OW          33.1790    11.5770   -51.7940 OW            1 RES     
    7057 HW1         33.0470    12.4780   -52.2070 HW1           1 RES     
    7058 HW2         32.7060    11.5400   -50.9140 HW2           1 RES     
    7059 OW          38.8080    26.4010   -51.7230 OW            1 RES     
    7060 HW1         39.1870    25.5250   -52.0220 HW1           1 RES     
    7061 HW2         37.8100    26.3610   -51.7540 HW2           1 RES     
    7062 OW           9.1070     7.8260   -49.8810 OW            1 RES     
    7063 HW1          9.3520     8.7890   -49.7720 HW1           1 RES     
    7064 HW2          8.1140     7.7250   -49.8120 HW2           1 RES     
    7065 OW           4.1340    17.4940   -48.5370 OW            1 RES     
    7066 HW1          4.9040    18.0700   -48.8070 HW1           1 RES     
    7067 HW2          3.2760    17.9670   -48.7380 HW2           1 RES     
    7068 OW          28.0430    29.4980   -43.5130 OW            1 RES     
    7069 HW1         28.8820    28.9580   -43.4500 HW1           1 RES     
    7070 HW2         28.2580    30.4660   -43.3810 HW2           1 RES     
    7071 OW          16.9440    26.6680   -51.7180 OW            1 RES     
    7072 HW1         17.8680    27.0380   -51.6400 HW1           1 RES     
    7073 HW2         16.9880    25.6710   -51.7890 HW2           1 RES     
    7074 OW          28.8090     1.3550   -51.4450 OW            1 RES     
    7075 HW1         29.2510     0.6070   -51.9380 HW1           1 RES     
    7076 HW2         29.3970     1.6540   -50.6940 HW2           1 RES     
    7077 OW          34.7960    35.2370   -32.0310 OW            1 RES     
    7078 HW1         35.6240    34.6850   -32.1180 HW1           1 RES     
    7079 HW2         34.0010    34.6370   -31.9450 HW2           1 RES     
    7080 OW          20.3870    34.2260   -50.9540 OW            1 RES     
    7081 HW1         21.0880    34.9030   -51.1760 HW1           1 RES     
    7082 HW2         20.1890    33.6720   -51.7630 HW2           1 RES     
    7083 OW          19.4220     2.8930   -50.0490 OW            1 RES     
    7084 HW1         19.0400     3.8020   -49.8830 HW1           1 RES     
    7085 HW2         20.1450     2.7080   -49.3840 HW2           1 RES     
    7086 OW          37.4670    15.3150   -47.0900 OW            1 RES     
    7087 HW1         37.5910    14.8300   -46.2250 HW1           1 RES     
    7088 HW2         36.6110    15.0240   -47.5170 HW2           1 RES     
    7089 OW           2.4010    13.9130   -46.6650 OW            1 RES     
    7090 HW1          2.6240    14.5510   -45.9280 HW1           1 RES     
    7091 HW2          3.2460    13.5670   -47.0740 HW2           1 RES     
    7092 OW          -0.8940    20.9490   -41.9050 OW            1 RES     
    7093 HW1         -0.8540    19.9940   -41.6110 HW1           1 RES     
    7094 HW2          0.0190    21.2530   -42.1770 HW2           1 RES     
    7095 OW          17.8050     6.7830   -31.0730 OW            1 RES     
    7096 HW1         18.7780     6.6560   -30.8830 HW1           1 RES     
    7097 HW2         17.5970     6.4400   -31.9890 HW2           1 RES     
    7098 OW          22.9510     0.5670   -39.8820 OW            1 RES     
    7099 HW1         22.6410     0.2470   -38.9880 HW1           1 RES     
    7100 HW2         23.6250    -0.0730   -40.2500 HW2           1 RES     
    7101 OW          22.0720    12.0110   -38.0370 OW            1 RES     
    7102 HW1         21.6930    11.1680   -37.6590 HW1           1 RES     
    7103 HW2         22.7680    12.3730   -37.4160 HW2           1 RES     
    7104 OW          15.0600     2.6010   -43.4720 OW            1 RES     
    7105 HW1         14.4220     2.4190   -44.2200 HW1           1 RES     
    7106 HW2         14.8280     3.4730   -43.0410 HW2           1 RES     
    7107 OW           2.1460    33.9770   -53.9170 OW            1 RES     
    7108 HW1          1.2440    33.6950   -54.2450 HW1           1 RES     
    7109 HW2          2.3540    33.5010   -53.0630 HW2           1 RES     
    7110 OW           2.4680    29.9670   -51.9850 OW            1 RES     
    7111 HW1          1.8700    30.0120   -51.1860 HW1           1 RES     
    7112 HW2          3.3210    30.4520   -51.7910 HW2           1 RES     
    7113 OW          14.0430    17.2520   -40.6090 OW            1 RES     
    7114 HW1         14.3410    16.4040   -40.1730 HW1           1 RES     
    7115 HW2         13.1700    17.5410   -40.2170 HW2           1 RES     
    7116 OW          16.6240    11.3440   -49.9560 OW            1 RES     
    7117 HW1         15.9710    11.8220   -49.3700 HW1           1 RES     
    7118 HW2         17.3330    10.9220   -49.3910 HW2           1 RES     
    7119 OW           7.0040    24.9620   -48.3820 OW            1 RES     
    7120 HW1          6.8220    25.7930   -47.8590 HW1           1 RES     
    7121 HW2          7.9920    24.8220   -48.4540 HW2           1 RES     
    7122 OW          21.7070    14.9080   -36.9650 OW            1 RES     
    7123 HW1         22.3480    14.5720   -37.6550 HW1           1 RES     
    7124 HW2         21.5800    15.8940   -37.0800 HW2           1 RES     
    7125 OW          14.8770     0.8470   -40.7880 OW            1 RES     
    7126 HW1         15.8730     0.8160   -40.8680 HW1           1 RES     
    7127 HW2         14.5160    -0.0850   -40.7490 HW2           1 RES     
    7128 OW          20.6630     4.4730   -34.3190 OW            1 RES     
    7129 HW1         19.8100     4.1020   -34.6840 HW1           1 RES     
    7130 HW2         21.3160     3.7300   -34.1750 HW2           1 RES     
    7131 OW          38.5630    15.8220   -44.2900 OW            1 RES     
    7132 HW1         37.5750    15.6970   -44.2030 HW1           1 RES     
    7133 HW2         38.9930    14.9450   -44.5030 HW2           1 RES     
    7134 OW          35.2190    30.4030   -43.4070 OW            1 RES     
    7135 HW1         35.1790    31.2800   -42.9300 HW1           1 RES     
    7136 HW2         35.7720    29.7590   -42.8770 HW2           1 RES     
    7137 OW          17.9610    12.4720   -43.8950 OW            1 RES     
    7138 HW1         17.2490    11.9760   -43.3990 HW1           1 RES     
    7139 HW2         18.8080    11.9420   -43.8830 HW2           1 RES     
    7140 OW          27.3610    28.5980   -40.5750 OW            1 RES     
    7141 HW1         28.3250    28.4410   -40.3660 HW1           1 RES     
    7142 HW2         26.8640    28.8000   -39.7300 HW2           1 RES     
    7143 OW          34.2460    19.2300   -45.8260 OW            1 RES     
    7144 HW1         33.5590    18.6380   -45.4070 HW1           1 RES     
    7145 HW2         34.0950    20.1750   -45.5350 HW2           1 RES     
    7146 OW           1.3340    23.6750   -40.2280 OW            1 RES     
    7147 HW1          1.3730    24.1900   -39.3720 HW1           1 RES     
    7148 HW2          1.3110    22.6950   -40.0260 HW2           1 RES     
    7149 OW          18.4310    17.6020   -44.1260 OW            1 RES     
    7150 HW1         18.5510    18.1280   -43.2840 HW1           1 RES     
    7151 HW2         17.5570    17.1170   -44.0950 HW2           1 RES     
    7152 OW           8.1370    36.4820   -33.7080 OW            1 RES     
    7153 HW1          7.7100    37.3560   -33.4780 HW1           1 RES     
    7154 HW2          9.1240    36.6100   -33.8060 HW2           1 RES     
    7155 OW          26.8730    -0.5420   -53.4970 OW            1 RES     
    7156 HW1         27.7640    -0.4320   -53.9350 HW1           1 RES     
    7157 HW2         26.1900    -0.0020   -53.9880 HW2           1 RES     
    7158 OW          16.1300     3.4630   -39.5740 OW            1 RES     
    7159 HW1         16.7670     3.8770   -40.2230 HW1           1 RES     
    7160 HW2         16.3170     2.4830   -39.5020 HW2           1 RES     
    7161 OW          31.0740    22.8470   -45.3920 OW            1 RES     
    7162 HW1         31.5950    23.5560   -44.9190 HW1           1 RES     
    7163 HW2         31.0640    22.0140   -44.8380 HW2           1 RES     
    7164 OW          24.9030    35.8130   -39.1960 OW            1 RES     
    7165 HW1         25.0750    34.9240   -38.7730 HW1           1 RES     
    7166 HW2         24.2640    35.7030   -39.9570 HW2           1 RES     
    7167 OW          22.3850     2.6940   -38.5860 OW            1 RES     
    7168 HW1         23.3050     2.3030   -38.5700 HW1           1 RES     
    7169 HW2         21.7520     2.0770   -38.1190 HW2           1 RES     
    7170 OW          -1.0050    23.7030   -44.0180 OW            1 RES     
    7171 HW1         -0.8620    22.7440   -43.7760 HW1           1 RES     
    7172 HW2         -0.6630    23.8680   -44.9440 HW2           1 RES     
    7173 OW           1.4300    21.5470   -45.4530 OW            1 RES     
    7174 HW1          2.2500    22.1180   -45.4540 HW1           1 RES     
    7175 HW2          0.6270    22.1170   -45.2760 HW2           1 RES     
    7176 OW          17.2120    21.5910   -47.7550 OW            1 RES     
    7177 HW1         17.7250    22.0900   -47.0580 HW1           1 RES     
    7178 HW2         16.9710    20.6850   -47.4080 HW2           1 RES     
    7179 OW          21.6020    19.9900   -54.1920 OW            1 RES     
    7180 HW1         20.9940    19.2070   -54.3230 HW1           1 RES     
    7181 HW2         22.5420    19.7230   -54.4050 HW2           1 RES     
    7182 OW          17.7220     1.5120   -34.7960 OW            1 RES     
    7183 HW1         17.7670     2.2360   -34.1080 HW1           1 RES     
    7184 HW2         16.8230     1.5260   -35.2350 HW2           1 RES     
    7185 OW          28.7020     0.4560   -45.5240 OW            1 RES     
    7186 HW1         27.7770     0.3620   -45.1570 HW1           1 RES     
    7187 HW2         28.7810     1.3250   -46.0120 HW2           1 RES     
    7188 OW          23.5540    16.7880   -46.1930 OW            1 RES     
    7189 HW1         23.1600    17.6530   -46.5000 HW1           1 RES     
    7190 HW2         23.0620    16.4640   -45.3850 HW2           1 RES     
    7191 OW          11.6670    25.1750   -33.0900 OW            1 RES     
    7192 HW1         10.7550    24.8980   -32.7900 HW1           1 RES     
    7193 HW2         11.5870    25.7970   -33.8700 HW2           1 RES     
    7194 OW          22.3010    24.3820   -46.1460 OW            1 RES     
    7195 HW1         23.2260    24.6710   -46.3910 HW1           1 RES     
    7196 HW2         22.3240    23.4400   -45.8100 HW2           1 RES     
    7197 OW          22.7630    36.1280   -50.4460 OW            1 RES     
    7198 HW1         23.2930    35.3930   -50.0250 HW1           1 RES     
    7199 HW2         22.0100    36.3860   -49.8390 HW2           1 RES     
    7200 OW          32.5520    36.1090   -47.9510 OW            1 RES     
    7201 HW1         33.5010    35.8980   -47.7200 HW1           1 RES     
    7202 HW2         32.1500    35.3390   -48.4470 HW2           1 RES     
    7203 OW          33.5570     9.5000   -52.9740 OW            1 RES     
    7204 HW1         33.4520     8.9630   -52.1380 HW1           1 RES     
    7205 HW2         32.6910     9.9510   -53.1930 HW2           1 RES     
    7206 OW          18.9740    -1.4710   -42.0750 OW            1 RES     
    7207 HW1         19.7900    -2.0470   -42.1220 HW1           1 RES     
    7208 HW2         18.1570    -2.0470   -42.1140 HW2           1 RES     
    7209 OW          30.6440    22.8680   -41.3390 OW            1 RES     
    7210 HW1         29.7840    22.4920   -40.9970 HW1           1 RES     
    7211 HW2         30.9250    22.3670   -42.1580 HW2           1 RES     
    7212 OW          29.5530    30.8230   -40.2480 OW            1 RES     
    7213 HW1         28.6680    30.5950   -40.6550 HW1           1 RES     
    7214 HW2         30.0920    29.9880   -40.1330 HW2           1 RES     
    7215 OW          11.7210    25.6560   -39.3490 OW            1 RES     
    7216 HW1         12.3270    25.3440   -40.0800 HW1           1 RES     
    7217 HW2         11.3750    24.8660   -38.8430 HW2           1 RES     
    7218 OW          23.2120    20.9690   -45.7850 OW            1 RES     
    7219 HW1         22.5440    20.4660   -45.2370 HW1           1 RES     
    7220 HW2         22.7480    21.4110   -46.5530 HW2           1 RES     
    7221 OW           6.3510    23.8980   -40.1310 OW            1 RES     
    7222 HW1          6.3320    22.9770   -39.7430 HW1           1 RES     
    7223 HW2          6.2510    23.8430   -41.1250 HW2           1 RES     
    7224 OW          14.8250    24.1320   -44.3090 OW            1 RES     
    7225 HW1         14.2130    24.1800   -43.5200 HW1           1 RES     
    7226 HW2         14.3760    23.6340   -45.0510 HW2           1 RES     
    7227 OW          28.3090    24.9030   -34.0360 OW            1 RES     
    7228 HW1         29.0910    25.5130   -34.1630 HW1           1 RES     
    7229 HW2         27.8170    25.1600   -33.2040 HW2           1 RES     
    7230 OW           2.8430    28.0710   -36.4380 OW            1 RES     
    7231 HW1          3.6300    28.6840   -36.3850 HW1           1 RES     
    7232 HW2          2.0050    28.6100   -36.5210 HW2           1 RES     
    7233 OW          18.3230    24.8040   -39.4920 OW            1 RES     
    7234 HW1         18.5860    24.1470   -40.1980 HW1           1 RES     
    7235 HW2         17.3490    25.0120   -39.5750 HW2           1 RES     
    7236 OW          15.9620    23.7910   -41.0920 OW            1 RES     
    7237 HW1         14.9900    23.7010   -41.3060 HW1           1 RES     
    7238 HW2         16.1680    23.2840   -40.2550 HW2           1 RES     
    7239 OW          14.7500    36.5050   -39.6390 OW            1 RES     
    7240 HW1         14.8720    37.0060   -38.7830 HW1           1 RES     
    7241 HW2         14.5150    37.1460   -40.3700 HW2           1 RES     
    7242 OW           3.4730    23.6130   -39.0550 OW            1 RES     
    7243 HW1          3.3610    22.6350   -39.2290 HW1           1 RES     
    7244 HW2          4.4470    23.8330   -39.0000 HW2           1 RES     
    7245 OW          37.5050    19.5660   -31.6080 OW            1 RES     
    7246 HW1         38.4890    19.4320   -31.7210 HW1           1 RES     
    7247 HW2         37.1360    18.8480   -31.0170 HW2           1 RES     
    7248 OW           5.2960    37.2140   -47.2250 OW            1 RES     
    7249 HW1          5.0180    36.3740   -46.7600 HW1           1 RES     
    7250 HW2          6.1440    37.0510   -47.7300 HW2           1 RES     
    7251 OW           9.9440    34.1280   -39.3780 OW            1 RES     
    7252 HW1          9.9050    33.1340   -39.4770 HW1           1 RES     
    7253 HW2          9.0180    34.5040   -39.4250 HW2           1 RES     
    7254 OW          31.4080    27.1000   -34.2700 OW            1 RES     
    7255 HW1         31.5290    26.8890   -35.2390 HW1           1 RES     
    7256 HW2         31.7080    26.3210   -33.7180 HW2           1 RES     
    7257 OW          20.5080    20.0930   -38.2730 OW            1 RES     
    7258 HW1         19.6930    20.5390   -37.9060 HW1           1 RES     
    7259 HW2         20.5520    20.2400   -39.2620 HW2           1 RES     
    7260 OW          27.9950    12.8720   -42.3020 OW            1 RES     
    7261 HW1         27.5810    12.1060   -42.7930 HW1           1 RES     
    7262 HW2         28.6680    12.5250   -41.6480 HW2           1 RES     
    7263 OW          27.1520    11.9400   -54.3530 OW            1 RES     
    7264 HW1         28.0060    11.8340   -53.8430 HW1           1 RES     
    7265 HW2         26.6780    12.7640   -54.0430 HW2           1 RES     
    7266 OW          26.6360    37.7380   -35.4780 OW            1 RES     
    7267 HW1         26.3370    37.7420   -36.4320 HW1           1 RES     
    7268 HW2         26.0280    38.3180   -34.9350 HW2           1 RES     
    7269 OW          21.2220    12.0220   -42.2880 OW            1 RES     
    7270 HW1         21.5420    12.9410   -42.0600 HW1           1 RES     
    7271 HW2         20.2290    11.9770   -42.1760 HW2           1 RES     
    7272 OW           6.8090    17.9150   -39.6540 OW            1 RES     
    7273 HW1          7.2500    17.9410   -40.5500 HW1           1 RES     
    7274 HW2          5.9810    18.4750   -39.6730 HW2           1 RES     
    7275 OW           8.9330    18.4530   -54.3070 OW            1 RES     
    7276 HW1          9.5540    17.6820   -54.1700 HW1           1 RES     
    7277 HW2          8.8630    18.9810   -53.4610 HW2           1 RES     
    7278 OW          25.0730    32.3430   -52.9810 OW            1 RES     
    7279 HW1         24.1430    31.9950   -53.1020 HW1           1 RES     
    7280 HW2         25.6960    31.5780   -52.8130 HW2           1 RES     
    7281 OW          28.2890    31.7470   -35.8780 OW            1 RES     
    7282 HW1         28.7310    31.0040   -35.3770 HW1           1 RES     
    7283 HW2         27.4990    31.3890   -36.3770 HW2           1 RES     
    7284 OW          -0.6050     6.3380   -44.8510 OW            1 RES     
    7285 HW1         -1.0050     6.0940   -43.9690 HW1           1 RES     
    7286 HW2          0.3170     5.9550   -44.9180 HW2           1 RES     
    7287 OW          27.6450     7.4100   -36.4910 OW            1 RES     
    7288 HW1         28.0460     7.5880   -37.3890 HW1           1 RES     
    7289 HW2         27.9550     8.1060   -35.8430 HW2           1 RES     
    7290 OW          10.8990    12.5910   -31.6650 OW            1 RES     
    7291 HW1         10.3210    11.8080   -31.4410 HW1           1 RES     
    7292 HW2         11.3900    12.8880   -30.8450 HW2           1 RES     
    7293 OW          16.8300    30.9770   -30.8460 OW            1 RES     
    7294 HW1         17.5690    31.5210   -31.2420 HW1           1 RES     
    7295 HW2         15.9700    31.4820   -30.9170 HW2           1 RES     
    7296 OW          34.1360    25.0440   -54.3170 OW            1 RES     
    7297 HW1         34.0040    26.0290   -54.4200 HW1           1 RES     
    7298 HW2         33.2480    24.5840   -54.3390 HW2           1 RES     
    7299 OW          -0.5210     4.9580   -41.3010 OW            1 RES     
    7300 HW1         -0.5610     4.0090   -40.9900 HW1           1 RES     
    7301 HW2          0.4290     5.2730   -41.2900 HW2           1 RES     
    7302 OW          22.6170    11.7120   -49.7010 OW            1 RES     
    7303 HW1         22.8920    11.9640   -50.6280 HW1           1 RES     
    7304 HW2         23.4210    11.4230   -49.1810 HW2           1 RES     
    7305 OW          28.3070    12.9850   -49.7080 OW            1 RES     
    7306 HW1         28.5720    13.6100   -48.9750 HW1           1 RES     
    7307 HW2         29.1240    12.5530   -50.0910 HW2           1 RES     
    7308 OW           5.8710     2.0740   -40.7300 OW            1 RES     
    7309 HW1          5.0500     2.6050   -40.5230 HW1           1 RES     
    7310 HW2          5.6710     1.4220   -41.4610 HW2           1 RES     
    7311 OW          24.2570    15.7220   -41.5740 OW            1 RES     
    7312 HW1         24.2400    16.5130   -40.9640 HW1           1 RES     
    7313 HW2         25.1160    15.7130   -42.0860 HW2           1 RES     
    7314 OW           8.6170    26.4000   -42.8800 OW            1 RES     
    7315 HW1          7.9950    27.1410   -43.1320 HW1           1 RES     
    7316 HW2          8.5940    26.2670   -41.8890 HW2           1 RES     
    7317 OW           8.8700    10.3270   -53.8820 OW            1 RES     
    7318 HW1          9.8570    10.2670   -54.0280 HW1           1 RES     
    7319 HW2          8.6110    11.2820   -53.7350 HW2           1 RES     
    7320 OW           1.2520     9.8650   -51.2960 OW            1 RES     
    7321 HW1          1.3670    10.4080   -52.1270 HW1           1 RES     
    7322 HW2          0.7700    10.4070   -50.6070 HW2           1 RES     
    7323 OW          31.9740     2.7320   -53.0080 OW            1 RES     
    7324 HW1         31.6290     1.9690   -52.4630 HW1           1 RES     
    7325 HW2         32.9470     2.8660   -52.8170 HW2           1 RES     
    7326 OW          22.4540     3.1760   -41.5670 OW            1 RES     
    7327 HW1         22.6750     2.5710   -40.8030 HW1           1 RES     
    7328 HW2         23.2940     3.5870   -41.9210 HW2           1 RES     
    7329 OW          32.3480    22.7170   -47.9090 OW            1 RES     
    7330 HW1         32.8790    22.2990   -47.1730 HW1           1 RES     
    7331 HW2         31.4370    22.9550   -47.5700 HW2           1 RES     
    7332 OW          -0.4560     3.8490   -38.7990 OW            1 RES     
    7333 HW1          0.5020     3.5670   -38.7450 HW1           1 RES     
    7334 HW2         -0.9980     3.3130   -38.1510 HW2           1 RES     
    7335 OW          16.5900    21.4960   -42.4170 OW            1 RES     
    7336 HW1         16.7550    22.4540   -42.6500 HW1           1 RES     
    7337 HW2         16.1220    21.4420   -41.5350 HW2           1 RES     
    7338 OW          36.3440     5.0360   -49.4330 OW            1 RES     
    7339 HW1         35.5000     5.5470   -49.2770 HW1           1 RES     
    7340 HW2         37.1220     5.6650   -49.4260 HW2           1 RES     
    7341 OW          15.2090     5.6140   -43.4130 OW            1 RES     
    7342 HW1         14.4090     5.9480   -42.9140 HW1           1 RES     
    7343 HW2         15.7630     6.3910   -43.7130 HW2           1 RES     
    7344 OW          31.3460    17.7300   -34.1100 OW            1 RES     
    7345 HW1         32.1320    18.0900   -34.6120 HW1           1 RES     
    7346 HW2         30.5520    18.3190   -34.2650 HW2           1 RES     
    7347 OW          28.8200     2.1440   -33.3160 OW            1 RES     
    7348 HW1         29.3230     1.7100   -32.5690 HW1           1 RES     
    7349 HW2         29.3150     2.0070   -34.1750 HW2           1 RES     
    7350 OW          37.4910    31.9560   -39.5270 OW            1 RES     
    7351 HW1         36.9020    32.6090   -40.0030 HW1           1 RES     
    7352 HW2         38.4170    32.3270   -39.4630 HW2           1 RES     
    7353 OW           6.7020    27.5090   -53.7580 OW            1 RES     
    7354 HW1          7.4010    27.7760   -54.4210 HW1           1 RES     
    7355 HW2          5.8550    27.2810   -54.2400 HW2           1 RES     
    7356 OW           9.8060    15.3810   -53.9530 OW            1 RES     
    7357 HW1          9.8120    15.8070   -53.0490 HW1           1 RES     
    7358 HW2         10.6680    15.5760   -54.4210 HW2           1 RES     
    7359 OW          25.3930     7.0150   -54.1620 OW            1 RES     
    7360 HW1         26.1700     7.2810   -53.5930 HW1           1 RES     
    7361 HW2         24.7760     7.7940   -54.2710 HW2           1 RES     
    7362 OW          21.9980    30.8770   -33.4500 OW            1 RES     
    7363 HW1         21.2310    30.9030   -34.0900 HW1           1 RES     
    7364 HW2         21.7970    31.4630   -32.6640 HW2           1 RES     
    7365 OW          30.9270    22.9830   -39.1430 OW            1 RES     
    7366 HW1         31.2560    22.0700   -39.3800 HW1           1 RES     
    7367 HW2         29.9880    22.9220   -38.8040 HW2           1 RES     
    7368 OW          31.0790    13.7170   -54.3940 OW            1 RES     
    7369 HW1         31.8110    14.3880   -54.2800 HW1           1 RES     
    7370 HW2         30.1930    14.1810   -54.3670 HW2           1 RES     
    7371 OW          35.0560    20.4290   -47.4970 OW            1 RES     
    7372 HW1         34.7320    21.3130   -47.8320 HW1           1 RES     
    7373 HW2         36.0450    20.3620   -47.6340 HW2           1 RES     
    7374 OW          29.7000    28.9460   -32.0910 OW            1 RES     
    7375 HW1         28.9040    28.3460   -32.1590 HW1           1 RES     
    7376 HW2         29.4160    29.8940   -32.2340 HW2           1 RES     
    7377 OW          37.7990    36.9110   -38.3600 OW            1 RES     
    7378 HW1         38.7490    36.6030   -38.3580 HW1           1 RES     
    7379 HW2         37.1900    36.1180   -38.3660 HW2           1 RES     
    7380 OW          34.6120    22.7040   -51.9930 OW            1 RES     
    7381 HW1         35.1640    22.3580   -51.2360 HW1           1 RES     
    7382 HW2         34.9510    23.6040   -52.2690 HW2           1 RES     
    7383 OW          21.1650    18.9820   -44.3730 OW            1 RES     
    7384 HW1         20.4630    19.0800   -45.0780 HW1           1 RES     
    7385 HW2         20.7740    18.5260   -43.5730 HW2           1 RES     
    7386 OW           0.7950     1.8760   -41.2400 OW            1 RES     
    7387 HW1          1.2580     0.9900   -41.2260 HW1           1 RES     
    7388 HW2          1.1750     2.4630   -40.5250 HW2           1 RES     
    7389 OW          12.0270    13.5130   -51.9500 OW            1 RES     
    7390 HW1         11.2220    13.6820   -51.3820 HW1           1 RES     
    7391 HW2         11.8910    12.6790   -52.4840 HW2           1 RES     
    7392 OW           4.8930    19.9940   -49.9410 OW            1 RES     
    7393 HW1          5.2820    20.7160   -49.3710 HW1           1 RES     
    7394 HW2          3.9360    19.8490   -49.6880 HW2           1 RES     
    7395 OW          21.1350    27.1060   -48.5390 OW            1 RES     
    7396 HW1         21.9000    26.4740   -48.4130 HW1           1 RES     
    7397 HW2         20.2960    26.6870   -48.1910 HW2           1 RES     
    7398 OW          36.6680     8.1770   -34.5590 OW            1 RES     
    7399 HW1         36.9450     9.1170   -34.7580 HW1           1 RES     
    7400 HW2         37.3870     7.5470   -34.8530 HW2           1 RES     
    7401 OW          24.1420    16.1140   -51.0350 OW            1 RES     
    7402 HW1         23.4360    16.7060   -50.6490 HW1           1 RES     
    7403 HW2         24.9050    16.6730   -51.3600 HW2           1 RES     
    7404 OW          16.0640    -1.5710   -37.1610 OW            1 RES     
    7405 HW1         16.6400    -0.9540   -37.6960 HW1           1 RES     
    7406 HW2         15.1560    -1.1680   -37.0500 HW2           1 RES     
    7407 OW          29.9080    20.7110   -38.2530 OW            1 RES     
    7408 HW1         29.3670    20.5650   -37.4250 HW1           1 RES     
    7409 HW2         29.2960    20.8470   -39.0320 HW2           1 RES     
    7410 OW          32.2520    22.5060   -53.7920 OW            1 RES     
    7411 HW1         32.5940    22.7590   -52.8870 HW1           1 RES     
    7412 HW2         33.0220    22.3970   -54.4210 HW2           1 RES     
    7413 OW          16.1990    33.6530   -31.2730 OW            1 RES     
    7414 HW1         17.1380    33.6450   -31.6160 HW1           1 RES     
    7415 HW2         15.5760    33.3570   -31.9970 HW2           1 RES     
    7416 OW           0.2780     5.0040   -51.9320 OW            1 RES     
    7417 HW1          1.0770     4.6390   -51.4560 HW1           1 RES     
    7418 HW2         -0.0730     5.7980   -51.4350 HW2           1 RES     
    7419 OW           0.8140    25.7380   -36.9780 OW            1 RES     
    7420 HW1          0.1700    25.0200   -36.7160 HW1           1 RES     
    7421 HW2          1.7200    25.5250   -36.6120 HW2           1 RES     
    7422 OW          28.4500    -2.0170   -46.4500 OW            1 RES     
    7423 HW1         28.2940    -1.7670   -45.4950 HW1           1 RES     
    7424 HW2         29.2020    -1.4710   -46.8190 HW2           1 RES     
    7425 OW          15.7440    32.0990   -42.5000 OW            1 RES     
    7426 HW1         16.6670    32.3410   -42.2030 HW1           1 RES     
    7427 HW2         15.2170    32.9320   -42.6660 HW2           1 RES     
    7428 OW          24.2920    31.4320   -45.5270 OW            1 RES     
    7429 HW1         25.1420    31.3160   -45.0130 HW1           1 RES     
    7430 HW2         23.5740    31.7620   -44.9140 HW2           1 RES     
    7431 OW           1.2630    31.2640   -53.3080 OW            1 RES     
    7432 HW1          1.7320    31.1700   -54.1850 HW1           1 RES     
    7433 HW2          0.2740    31.2650   -53.4560 HW2           1 RES     
    7434 OW           4.1110    24.1610   -54.4160 OW            1 RES     
    7435 HW1          4.8980    23.5480   -54.3510 HW1           1 RES     
    7436 HW2          4.4260    25.1100   -54.4210 HW2           1 RES     
    7437 OW           7.3250    23.8780   -32.0000 OW            1 RES     
    7438 HW1          8.1950    23.3870   -32.0320 HW1           1 RES     
    7439 HW2          6.5710    23.2250   -32.0760 HW2           1 RES     
    7440 OW           8.6080     9.7460   -30.8460 OW            1 RES     
    7441 HW1          8.4540    10.7300   -30.9320 HW1           1 RES     
    7442 HW2          7.8180     9.2520   -31.2090 HW2           1 RES     
    7443 OW          29.6380    29.7010   -53.2330 OW            1 RES     
    7444 HW1         28.7360    29.7150   -53.6640 HW1           1 RES     
    7445 HW2         30.3360    29.5190   -53.9250 HW2           1 RES     
    7446 OW          18.6100    19.3450   -34.8500 OW            1 RES     
    7447 HW1         18.3940    18.3720   -34.9320 HW1           1 RES     
    7448 HW2         19.5980    19.4770   -34.9360 HW2           1 RES     
    7449 OW           5.0360     1.4870   -53.6210 OW            1 RES     
    7450 HW1          5.7360     2.1960   -53.5390 HW1           1 RES     
    7451 HW2          4.1300     1.9020   -53.5370 HW2           1 RES     
    7452 OW           4.6210    -1.2130   -39.9620 OW            1 RES     
    7453 HW1          3.8150    -1.6430   -40.3690 HW1           1 RES     
    7454 HW2          4.6900    -0.2670   -40.2780 HW2           1 RES     
    7455 OW          25.8370    16.5630   -53.4990 OW            1 RES     
    7456 HW1         24.9340    16.4580   -53.9140 HW1           1 RES     
    7457 HW2         26.5050    16.7960   -54.2060 HW2           1 RES     
    7458 OW           5.9280    12.2930   -33.0590 OW            1 RES     
    7459 HW1          6.1930    13.2560   -33.0320 HW1           1 RES     
    7460 HW2          5.0310    12.1820   -32.6300 HW2           1 RES     
    7461 OW           4.9750    20.7660   -42.8550 OW            1 RES     
    7462 HW1          4.4020    21.4000   -43.3720 HW1           1 RES     
    7463 HW2          5.7370    20.4620   -43.4270 HW2           1 RES     
    7464 OW          11.7440    33.0290   -30.8620 OW            1 RES     
    7465 HW1         12.5490    33.6000   -31.0180 HW1           1 RES     
    7466 HW2         12.0090    32.0640   -30.8870 HW2           1 RES     
    7467 OW          24.3510     8.3390   -48.1560 OW            1 RES     
    7468 HW1         24.1480     8.3080   -49.1340 HW1           1 RES     
    7469 HW2         24.4710     7.4080   -47.8100 HW2           1 RES     
    7470 OW          35.7610    16.5360   -49.3960 OW            1 RES     
    7471 HW1         36.7150    16.7820   -49.5670 HW1           1 RES     
    7472 HW2         35.4740    15.8370   -50.0520 HW2           1 RES     
    7473 OW           3.9260    22.7390   -41.3530 OW            1 RES     
    7474 HW1          4.3360    23.2150   -42.1300 HW1           1 RES     
    7475 HW2          4.5850    22.0890   -40.9740 HW2           1 RES     
    7476 OW          24.0520    22.2750   -35.4130 OW            1 RES     
    7477 HW1         23.8190    22.7970   -34.5930 HW1           1 RES     
    7478 HW2         24.9310    21.8180   -35.2780 HW2           1 RES     
    7479 OW           5.9090    27.2940   -42.4520 OW            1 RES     
    7480 HW1          6.2380    28.2340   -42.3730 HW1           1 RES     
    7481 HW2          4.9820    27.2940   -42.8290 HW2           1 RES     
    7482 OW          28.3870    14.2620   -44.3630 OW            1 RES     
    7483 HW1         28.5580    15.0750   -44.9190 HW1           1 RES     
    7484 HW2         27.4020    14.1490   -44.2300 HW2           1 RES     
    7485 OW          17.4760    36.1700   -42.2430 OW            1 RES     
    7486 HW1         18.2250    35.5410   -42.0370 HW1           1 RES     
    7487 HW2         17.1770    36.6200   -41.4010 HW2           1 RES     
    7488 OW          -0.0860    27.4120   -33.8880 OW            1 RES     
    7489 HW1         -0.9660    27.5130   -34.3500 HW1           1 RES     
    7490 HW2          0.4830    28.2140   -34.0740 HW2           1 RES     
    7491 OW          30.5090    27.1730   -39.3530 OW            1 RES     
    7492 HW1         30.9530    28.0050   -39.6810 HW1           1 RES     
    7493 HW2         29.8650    26.8430   -40.0440 HW2           1 RES     
    7494 OW          24.6340    36.7340   -34.3130 OW            1 RES     
    7495 HW1         23.7640    36.2550   -34.4270 HW1           1 RES     
    7496 HW2         24.5480    37.4120   -33.5820 HW2           1 RES     
    7497 OW           6.7380     7.8280   -45.7690 OW            1 RES     
    7498 HW1          5.9640     7.2540   -46.0340 HW1           1 RES     
    7499 HW2          6.7390     7.9500   -44.7760 HW2           1 RES     
    7500 OW          22.2500    29.8450   -39.7700 OW            1 RES     
    7501 HW1         23.1630    29.8440   -40.1750 HW1           1 RES     
    7502 HW2         21.7840    30.7000   -39.9980 HW2           1 RES     
    7503 OW          28.6430    12.3570   -37.4100 OW            1 RES     
    7504 HW1         28.2370    12.5750   -38.2970 HW1           1 RES     
    7505 HW2         28.5250    13.1330   -36.7890 HW2           1 RES     
    7506 OW          16.4570    26.6910   -53.9010 OW            1 RES     
    7507 HW1         15.5160    26.9290   -54.1400 HW1           1 RES     
    7508 HW2         16.7400    25.8840   -54.4210 HW2           1 RES     
    7509 OW          31.1720     6.8830   -46.3060 OW            1 RES     
    7510 HW1         30.9160     6.8620   -47.2720 HW1           1 RES     
    7511 HW2         30.4060     7.2290   -45.7640 HW2           1 RES     
    7512 OW          -0.0890    34.2220   -32.7990 OW            1 RES     
    7513 HW1         -0.1110    33.2900   -32.4380 HW1           1 RES     
    7514 HW2         -1.0050    34.6210   -32.7480 HW2           1 RES     
    7515 OW          34.7080     0.9170   -47.8200 OW            1 RES     
    7516 HW1         34.8520     0.3000   -48.5940 HW1           1 RES     
    7517 HW2         34.0890     1.6540   -48.0910 HW2           1 RES     
    7518 OW           5.5260    31.4240   -43.9590 OW            1 RES     
    7519 HW1          5.0790    32.1680   -43.4630 HW1           1 RES     
    7520 HW2          6.4170    31.7340   -44.2920 HW2           1 RES     
    7521 OW           9.4380    31.5120   -43.0580 OW            1 RES     
    7522 HW1          8.5860    31.9880   -42.8440 HW1           1 RES     
    7523 HW2         10.1920    32.1690   -43.0720 HW2           1 RES     
    7524 OW          27.4220    20.2730   -47.0080 OW            1 RES     
    7525 HW1         26.9790    21.0710   -46.6010 HW1           1 RES     
    7526 HW2         28.4150    20.3740   -46.9470 HW2           1 RES     
    7527 OW          11.3250    21.7520   -39.7900 OW            1 RES     
    7528 HW1         11.4790    22.7320   -39.9170 HW1           1 RES     
    7529 HW2         10.6440    21.6120   -39.0710 HW2           1 RES     
    7530 OW          38.6580    26.9730   -53.8500 OW            1 RES     
    7531 HW1         39.1880    27.8190   -53.7990 HW1           1 RES     
    7532 HW2         37.6890    27.1920   -53.9660 HW2           1 RES     
    7533 OW           1.5180    20.6070   -48.3580 OW            1 RES     
    7534 HW1          2.0380    19.7790   -48.5650 HW1           1 RES     
    7535 HW2          0.5390    20.4150   -48.4350 HW2           1 RES     
    7536 OW          33.7340    17.1010   -43.8360 OW            1 RES     
    7537 HW1         33.8400    16.1080   -43.8480 HW1           1 RES     
    7538 HW2         34.6340    17.5320   -43.7700 HW2           1 RES     
    7539 OW          16.9400    34.5270   -53.3800 OW            1 RES     
    7540 HW1         16.2520    33.9820   -52.9030 HW1           1 RES     
    7541 HW2         17.8020    34.0200   -53.4160 HW2           1 RES     
    7542 OW          36.2180    13.0460   -48.7880 OW            1 RES     
    7543 HW1         36.1810    13.8760   -49.3440 HW1           1 RES     
    7544 HW2         36.9740    12.4700   -49.0990 HW2           1 RES     
    7545 OW          18.3220    22.1610   -38.4830 OW            1 RES     
    7546 HW1         18.2290    21.9180   -39.4480 HW1           1 RES     
    7547 HW2         17.8350    23.0160   -38.3050 HW2           1 RES     
    7548 OW           7.2030    29.0990   -45.5100 OW            1 RES     
    7549 HW1          6.8660    28.1600   -45.5630 HW1           1 RES     
    7550 HW2          6.8780    29.5240   -44.6650 HW2           1 RES     
    7551 OW          28.6850    36.4240   -45.1570 OW            1 RES     
    7552 HW1         29.2710    36.0210   -44.4550 HW1           1 RES     
    7553 HW2         29.1610    36.4130   -46.0360 HW2           1 RES     
    7554 OW          31.9560     0.5750   -37.7800 OW            1 RES     
    7555 HW1         31.4850     1.1030   -38.4850 HW1           1 RES     
    7556 HW2         32.7210     1.1080   -37.4180 HW2           1 RES     
    7557 OW          33.6380    10.2360   -48.5000 OW            1 RES     
    7558 HW1         33.1150    11.0840   -48.4310 HW1           1 RES     
    7559 HW2         34.5110    10.4180   -48.9540 HW2           1 RES     
    7560 OW          33.2380    20.5070   -39.8200 OW            1 RES     
    7561 HW1         32.7000    20.8910   -40.5700 HW1           1 RES     
    7562 HW2         32.6370    20.3110   -39.0450 HW2           1 RES     
    7563 OW          10.4790    25.1280   -54.1830 OW            1 RES     
    7564 HW1          9.8620    24.5060   -53.7030 HW1           1 RES     
    7565 HW2          9.9890    25.9670   -54.4210 HW2           1 RES     
    7566 OW          16.1820    12.4360   -41.0910 OW            1 RES     
    7567 HW1         16.1660    11.4440   -40.9740 HW1           1 RES     
    7568 HW2         17.1280    12.7600   -41.0660 HW2           1 RES     
    7569 OW          32.1760    33.4230   -44.9000 OW            1 RES     
    7570 HW1         32.0330    34.2830   -45.3870 HW1           1 RES     
    7571 HW2         32.0070    32.6560   -45.5190 HW2           1 RES     
    7572 OW          -0.8270    14.7360   -48.5430 OW            1 RES     
    7573 HW1          0.1450    14.5830   -48.3700 HW1           1 RES     
    7574 HW2         -1.0050    15.7180   -48.6040 HW2           1 RES     
    7575 OW          22.2700    14.3110   -40.4170 OW            1 RES     
    7576 HW1         21.9270    13.5930   -39.8120 HW1           1 RES     
    7577 HW2         23.0870    13.9860   -40.8930 HW2           1 RES     
    7578 OW           6.1480     2.0600   -47.2590 OW            1 RES     
    7579 HW1          5.7180     1.1820   -47.4640 HW1           1 RES     
    7580 HW2          7.1420     1.9500   -47.2390 HW2           1 RES     
    7581 OW           5.9180    25.5260   -38.6080 OW            1 RES     
    7582 HW1          5.3990    25.7700   -39.4250 HW1           1 RES     
    7583 HW2          6.1040    26.3500   -38.0710 HW2           1 RES     
    7584 OW           1.5260    33.0660   -33.8900 OW            1 RES     
    7585 HW1          2.4510    33.0180   -34.2650 HW1           1 RES     
    7586 HW2          0.8720    33.2180   -34.6320 HW2           1 RES     
    7587 OW          32.7830    15.5990   -48.6340 OW            1 RES     
    7588 HW1         33.0390    15.8150   -49.5760 HW1           1 RES     
    7589 HW2         33.5180    15.0800   -48.1980 HW2           1 RES     
    7590 OW          27.9390    16.8560   -46.8610 OW            1 RES     
    7591 HW1         27.6350    15.9070   -46.9390 HW1           1 RES     
    7592 HW2         28.3270    17.0080   -45.9520 HW2           1 RES     
    7593 OW          18.9030    14.7370   -35.8460 OW            1 RES     
    7594 HW1         18.9720    15.6920   -35.5610 HW1           1 RES     
    7595 HW2         19.8210    14.3580   -35.9670 HW2           1 RES     
    7596 OW          21.2610     9.0560   -39.9830 OW            1 RES     
    7597 HW1         21.5720     8.1290   -40.1850 HW1           1 RES     
    7598 HW2         21.7310     9.3970   -39.1690 HW2           1 RES     
    7599 OW           8.5330    20.9940   -39.0870 OW            1 RES     
    7600 HW1          7.8120    20.3020   -39.0620 HW1           1 RES     
    7601 HW2          8.1220    21.9050   -39.0450 HW2           1 RES     
    7602 OW          19.5760     0.3090   -40.3770 OW            1 RES     
    7603 HW1         19.7180    -0.6590   -40.1710 HW1           1 RES     
    7604 HW2         20.4630     0.7640   -40.4700 HW2           1 RES     
    7605 OW          30.6480    15.8260   -48.0420 OW            1 RES     
    7606 HW1         30.3740    14.8660   -48.0070 HW1           1 RES     
    7607 HW2         29.8610    16.4060   -47.8310 HW2           1 RES     
    7608 OW          16.3010    21.7750   -52.9740 OW            1 RES     
    7609 HW1         16.6840    22.1800   -52.1440 HW1           1 RES     
    7610 HW2         16.8690    22.0230   -53.7590 HW2           1 RES     
    7611 OW          12.3380     3.5150   -53.8220 OW            1 RES     
    7612 HW1         12.6990     2.8010   -54.4210 HW1           1 RES     
    7613 HW2         11.4870     3.8740   -54.2060 HW2           1 RES     
    7614 OW           4.7360    32.1190   -36.1950 OW            1 RES     
    7615 HW1          4.9520    31.2620   -35.7280 HW1           1 RES     
    7616 HW2          3.8590    32.4680   -35.8640 HW2           1 RES     
    7617 OW          20.5980    26.8850   -53.2440 OW            1 RES     
    7618 HW1         21.1350    27.7030   -53.0420 HW1           1 RES     
    7619 HW2         20.2970    26.9100   -54.1980 HW2           1 RES     
    7620 OW           1.5980    35.7510   -34.5250 OW            1 RES     
    7621 HW1          0.6600    35.4060   -34.5500 HW1           1 RES     
    7622 HW2          2.1490    35.1760   -33.9190 HW2           1 RES     
    7623 OW          29.1100     1.8240   -38.8950 OW            1 RES     
    7624 HW1         29.2870     0.9800   -38.3910 HW1           1 RES     
    7625 HW2         29.7900     1.9280   -39.6220 HW2           1 RES     
    7626 OW          25.8100    23.1520   -43.1050 OW            1 RES     
    7627 HW1         25.8500    22.2450   -43.5250 HW1           1 RES     
    7628 HW2         25.2660    23.1080   -42.2670 HW2           1 RES     
    7629 OW          20.7720     2.0860   -36.0340 OW            1 RES     
    7630 HW1         21.1420     1.1770   -35.8430 HW1           1 RES     
    7631 HW2         19.8350     2.1450   -35.6890 HW2           1 RES     
    7632 OW           6.9410     1.4030   -38.9260 OW            1 RES     
    7633 HW1          7.3630     2.2860   -39.1280 HW1           1 RES     
    7634 HW2          7.3150     0.7060   -39.5380 HW2           1 RES     
    7635 OW          30.8710    11.0450   -52.4720 OW            1 RES     
    7636 HW1         29.9200    11.2960   -52.2940 HW1           1 RES     
    7637 HW2         31.2500    11.6480   -53.1750 HW2           1 RES     
    7638 OW          32.2680    17.8020   -50.1210 OW            1 RES     
    7639 HW1         33.1480    18.2050   -49.8700 HW1           1 RES     
    7640 HW2         31.7110    17.6800   -49.3000 HW2           1 RES     
    7641 OW          31.4600    23.4920   -34.5380 OW            1 RES     
    7642 HW1         30.6230    23.5970   -35.0730 HW1           1 RES     
    7643 HW2         32.0190    24.3160   -34.6260 HW2           1 RES     
    7644 OW          12.7870    16.5630   -54.1070 OW            1 RES     
    7645 HW1         12.5500    16.0260   -53.2980 HW1           1 RES     
    7646 HW2         12.5200    17.5160   -53.9650 HW2           1 RES     
    7647 OW          -0.0210     2.1400   -50.3050 OW            1 RES     
    7648 HW1         -0.2950     1.8900   -51.2320 HW1           1 RES     
    7649 HW2         -0.8270     2.1650   -49.7130 HW2           1 RES     
    7650 OW          -0.2480    26.9010   -39.6400 OW            1 RES     
    7651 HW1         -1.0010    26.6490   -40.2460 HW1           1 RES     
    7652 HW2          0.2400    26.0760   -39.3530 HW2           1 RES     
    7653 OW          29.6380     0.7050   -54.1690 OW            1 RES     
    7654 HW1         30.1500     1.5560   -54.0610 HW1           1 RES     
    7655 HW2         30.2760    -0.0540   -54.3050 HW2           1 RES     
    7656 OW          11.7460    19.3540   -35.5070 OW            1 RES     
    7657 HW1         11.9560    20.2920   -35.7800 HW1           1 RES     
    7658 HW2         12.5890    18.8900   -35.2330 HW2           1 RES     
    7659 OW          24.1350    23.6580   -49.6970 OW            1 RES     
    7660 HW1         23.5700    23.2570   -48.9770 HW1           1 RES     
    7661 HW2         24.0360    23.1220   -50.5360 HW2           1 RES     
    7662 OW          27.3680    30.9820   -50.6480 OW            1 RES     
    7663 HW1         27.9120    31.2200   -49.8440 HW1           1 RES     
    7664 HW2         27.2060    31.8020   -51.1970 HW2           1 RES     
    7665 OW           1.9300     6.1450   -42.9510 OW            1 RES     
    7666 HW1          1.0530     6.6240   -42.9560 HW1           1 RES     
    7667 HW2          2.6750     6.8120   -42.9500 HW2           1 RES     
    7668 OW           7.8920    21.0870   -32.1650 OW            1 RES     
    7669 HW1          8.4700    20.7100   -32.8880 HW1           1 RES     
    7670 HW2          8.4100    21.1300   -31.3110 HW2           1 RES     
    7671 OW          -0.3210    22.0790   -47.2620 OW            1 RES     
    7672 HW1          0.4840    22.5680   -47.5940 HW1           1 RES     
    7673 HW2         -0.9590    22.7280   -46.8470 HW2           1 RES     
    7674 OW          19.6920    37.5490   -41.1900 OW            1 RES     
    7675 HW1         19.0570    38.2470   -41.5190 HW1           1 RES     
    7676 HW2         20.2590    37.9310   -40.4610 HW2           1 RES     
    7677 OW          13.2270    31.9660   -37.5060 OW            1 RES     
    7678 HW1         13.8500    32.4500   -38.1200 HW1           1 RES     
    7679 HW2         13.7140    31.7100   -36.6700 HW2           1 RES     
    7680 OW          35.5300    26.7940   -31.3700 OW            1 RES     
    7681 HW1         35.9750    27.6880   -31.4030 HW1           1 RES     
    7682 HW2         35.5250    26.3890   -32.2850 HW2           1 RES     
    7683 OW          29.8380    30.1760   -45.8130 OW            1 RES     
    7684 HW1         30.2570    31.0370   -45.5300 HW1           1 RES     
    7685 HW2         29.3180    30.3190   -46.6560 HW2           1 RES     
    7686 OW           9.4390    24.6850   -34.5800 OW            1 RES     
    7687 HW1          9.6910    25.5260   -35.0560 HW1           1 RES     
    7688 HW2          8.5220    24.7820   -34.1920 HW2           1 RES     
    7689 OW          24.9160    33.4300   -30.8480 OW            1 RES     
    7690 HW1         24.9140    32.4380   -30.9700 HW1           1 RES     
    7691 HW2         24.0910    33.8180   -31.2600 HW2           1 RES     
    7692 OW          37.3260    25.0150   -30.8740 OW            1 RES     
    7693 HW1         37.9900    24.2680   -30.8450 HW1           1 RES     
    7694 HW2         36.4680    24.6830   -31.2660 HW2           1 RES     
    7695 OW          19.4520     0.7310   -51.2680 OW            1 RES     
    7696 HW1         18.5690     1.0540   -50.9310 HW1           1 RES     
    7697 HW2         19.9600     1.4970   -51.6620 HW2           1 RES     
    7698 OW          34.1490    25.7300   -45.2280 OW            1 RES     
    7699 HW1         33.9260    25.1870   -46.0360 HW1           1 RES     
    7700 HW2         34.4290    26.6480   -45.5100 HW2           1 RES     
    7701 OW           5.9900    31.2820   -46.8300 OW            1 RES     
    7702 HW1          5.4030    32.0380   -46.5420 HW1           1 RES     
    7703 HW2          5.6860    30.4370   -46.3900 HW2           1 RES     
    7704 OW          36.5460     5.5300   -40.1830 OW            1 RES     
    7705 HW1         37.3890     5.1940   -40.6010 HW1           1 RES     
    7706 HW2         36.7290     6.3920   -39.7090 HW2           1 RES     
    7707 OW          17.1060    19.3660   -42.1440 OW            1 RES     
    7708 HW1         17.7970    19.1280   -41.4620 HW1           1 RES     
    7709 HW2         16.3520    18.7100   -42.0960 HW2           1 RES     
    7710 OW          15.6380    25.6020   -46.6950 OW            1 RES     
    7711 HW1         16.3940    24.9530   -46.6200 HW1           1 RES     
    7712 HW2         14.7690    25.1100   -46.6340 HW2           1 RES     
    7713 OW          -0.4280    15.0560   -40.0880 OW            1 RES     
    7714 HW1         -1.0050    15.8710   -40.1270 HW1           1 RES     
    7715 HW2         -1.0050    14.2410   -40.0260 HW2           1 RES     
    7716 OW          29.8830    24.8220   -48.2990 OW            1 RES     
    7717 HW1         29.3260    24.3250   -47.6340 HW1           1 RES     
    7718 HW2         30.2310    24.1840   -48.9860 HW2           1 RES     
    7719 OW          18.6550    -0.1550   -53.1180 OW            1 RES     
    7720 HW1         18.3010    -0.8620   -52.5070 HW1           1 RES     
    7721 HW2         19.3460    -0.5520   -53.7230 HW2           1 RES     
    7722 OW          27.6300    26.5170   -41.3910 OW            1 RES     
    7723 HW1         28.5370    26.6440   -41.7910 HW1           1 RES     
    7724 HW2         27.4380    25.5400   -41.3010 HW2           1 RES     
    7725 OW          11.7050    28.3690   -37.5560 OW            1 RES     
    7726 HW1         11.8400    28.1320   -36.5940 HW1           1 RES     
    7727 HW2         12.1060    29.2670   -37.7370 HW2           1 RES     
    7728 OW          26.8740    11.0160   -37.4280 OW            1 RES     
    7729 HW1         26.3450    10.4040   -36.8410 HW1           1 RES     
    7730 HW2         27.5570    10.4870   -37.9320 HW2           1 RES     
    7731 OW           0.7320    31.0130   -42.0790 OW            1 RES     
    7732 HW1          1.0270    30.3890   -42.8020 HW1           1 RES     
    7733 HW2         -0.2190    30.8200   -41.8380 HW2           1 RES     
    7734 OW          20.9210    21.2320   -32.4160 OW            1 RES     
    7735 HW1         21.2290    20.4990   -33.0210 HW1           1 RES     
    7736 HW2         21.7080    21.7750   -32.1210 HW2           1 RES     
    7737 OW           2.0310    19.0610   -46.4200 OW            1 RES     
    7738 HW1          2.3610    19.3380   -45.5190 HW1           1 RES     
    7739 HW2          1.0980    19.3970   -46.5520 HW2           1 RES     
    7740 OW          34.5890    37.3850   -43.2870 OW            1 RES     
    7741 HW1         34.7550    38.3410   -43.0490 HW1           1 RES     
    7742 HW2         33.9530    36.9820   -42.6280 HW2           1 RES     
    7743 OW          30.7050    33.1050   -35.9670 OW            1 RES     
    7744 HW1         30.6190    32.4320   -35.2330 HW1           1 RES     
    7745 HW2         31.6340    33.4760   -35.9730 HW2           1 RES     
    7746 OW          12.3630    34.3050   -39.0260 OW            1 RES     
    7747 HW1         12.0360    33.3630   -38.9690 HW1           1 RES     
    7748 HW2         13.3500    34.3060   -39.1890 HW2           1 RES     
    7749 OW          16.7260     9.8530   -43.1180 OW            1 RES     
    7750 HW1         15.7470    10.0560   -43.1150 HW1           1 RES     
    7751 HW2         16.8610     8.8620   -43.0900 HW2           1 RES     
    7752 OW          22.9110    33.4700   -51.4490 OW            1 RES     
    7753 HW1         22.6510    32.5130   -51.5710 HW1           1 RES     
    7754 HW2         23.8980    33.5670   -51.5810 HW2           1 RES     
    7755 OW          28.1840     9.4700   -40.4960 OW            1 RES     
    7756 HW1         28.2510     9.0210   -39.6060 HW1           1 RES     
    7757 HW2         27.3280     9.9860   -40.5470 HW2           1 RES     
    7758 OW          37.0880    -1.7350   -41.4980 OW            1 RES     
    7759 HW1         36.1390    -2.0470   -41.4840 HW1           1 RES     
    7760 HW2         37.1570    -0.8540   -41.0300 HW2           1 RES     
    7761 OW           5.4270    11.6550   -54.3630 OW            1 RES     
    7762 HW1          4.4790    11.5510   -54.0660 HW1           1 RES     
    7763 HW2          5.8600    10.7550   -54.4210 HW2           1 RES     
    7764 OW           0.9200     8.0600   -45.2880 OW            1 RES     
    7765 HW1          1.7630     7.5510   -45.4600 HW1           1 RES     
    7766 HW2          1.0710     9.0300   -45.4740 HW2           1 RES     
    7767 OW          26.4840    14.9130   -50.5680 OW            1 RES     
    7768 HW1         27.1840    15.5140   -50.9530 HW1           1 RES     
    7769 HW2         25.8220    14.6750   -51.2780 HW2           1 RES     
    7770 OW          22.6170    18.7790   -41.9360 OW            1 RES     
    7771 HW1         22.4610    18.6630   -40.9560 HW1           1 RES     
    7772 HW2         22.7440    17.8830   -42.3620 HW2           1 RES     
    7773 OW          15.9270    -0.8850   -53.9390 OW            1 RES     
    7774 HW1         16.5910    -0.1410   -53.8770 HW1           1 RES     
    7775 HW2         15.1110    -0.5650   -54.4210 HW2           1 RES     
    7776 OW           8.7510    29.6040   -48.5440 OW            1 RES     
    7777 HW1          9.6910    29.4520   -48.2390 HW1           1 RES     
    7778 HW2          8.6780    29.3900   -49.5190 HW2           1 RES     
    7779 OW          25.7970     9.7480   -49.3860 OW            1 RES     
    7780 HW1         25.4940    10.6970   -49.3060 HW1           1 RES     
    7781 HW2         26.7900     9.7040   -49.2740 HW2           1 RES     
    7782 OW           1.6930    -1.4530   -37.2390 OW            1 RES     
    7783 HW1          2.0780    -2.0430   -37.9470 HW1           1 RES     
    7784 HW2          1.4900    -1.9980   -36.4250 HW2           1 RES     
    7785 OW          34.7680    31.5910   -50.5890 OW            1 RES     
    7786 HW1         35.3250    30.8390   -50.9380 HW1           1 RES     
    7787 HW2         35.1980    31.9740   -49.7710 HW2           1 RES     
    7788 OW          33.9240    33.9190   -46.4510 OW            1 RES     
    7789 HW1         34.7890    34.4190   -46.4310 HW1           1 RES     
    7790 HW2         34.1030    32.9380   -46.3690 HW2           1 RES     
    7791 OW          26.7910    28.8850   -32.4470 OW            1 RES     
    7792 HW1         25.8930    29.0140   -32.0270 HW1           1 RES     
    7793 HW2         27.1940    29.7760   -32.6540 HW2           1 RES     
    7794 OW          33.8620     1.0440   -51.1190 OW            1 RES     
    7795 HW1         33.5610     1.2260   -50.1830 HW1           1 RES     
    7796 HW2         33.1270     0.5920   -51.6240 HW2           1 RES     
    7797 OW          16.1120    25.1200   -33.9140 OW            1 RES     
    7798 HW1         16.6360    25.2590   -34.7530 HW1           1 RES     
    7799 HW2         16.4080    25.7800   -33.2220 HW2           1 RES     
    7800 OW           8.2520    17.8080   -35.3870 OW            1 RES     
    7801 HW1          9.0080    17.2260   -35.6820 HW1           1 RES     
    7802 HW2          8.6030    18.7110   -35.1360 HW2           1 RES     
    7803 OW          20.0790    16.4210   -43.2730 OW            1 RES     
    7804 HW1         19.2910    16.0750   -42.7650 HW1           1 RES     
    7805 HW2         20.8760    15.8460   -43.0850 HW2           1 RES     
    7806 OW           7.3750    16.0880   -31.2010 OW            1 RES     
    7807 HW1          7.6070    17.0200   -31.4750 HW1           1 RES     
    7808 HW2          6.3920    16.0270   -31.0260 HW2           1 RES     
    7809 OW          28.3000    23.1340   -36.2120 OW            1 RES     
    7810 HW1         28.6890    24.0360   -36.0260 HW1           1 RES     
    7811 HW2         27.3930    23.0690   -35.7960 HW2           1 RES     
    7812 OW          23.3870    10.0100   -53.5850 OW            1 RES     
    7813 HW1         22.4100     9.7990   -53.6250 HW1           1 RES     
    7814 HW2         23.5140    11.0010   -53.5480 HW2           1 RES     
    7815 OW          17.8430    26.3910   -41.3180 OW            1 RES     
    7816 HW1         18.2620    25.6240   -41.8040 HW1           1 RES     
    7817 HW2         16.8500    26.2750   -41.3060 HW2           1 RES     
    7818 OW          24.4160    32.4300   -36.9830 OW            1 RES     
    7819 HW1         25.3770    32.3040   -36.7380 HW1           1 RES     
    7820 HW2         24.3070    33.2960   -37.4720 HW2           1 RES     
    7821 OW           6.8310     9.6990   -51.9550 OW            1 RES     
    7822 HW1          7.6290     9.6760   -51.3530 HW1           1 RES     
    7823 HW2          6.7700     8.8380   -52.4610 HW2           1 RES     
    7824 OW          17.2540     4.6760   -38.1230 OW            1 RES     
    7825 HW1         16.3900     5.1790   -38.1220 HW1           1 RES     
    7826 HW2         17.8850     5.0970   -38.7740 HW2           1 RES     
    7827 OW          39.1830    32.7650   -52.0670 OW            1 RES     
    7828 HW1         39.1030    33.5770   -51.4900 HW1           1 RES     
    7829 HW2         38.8200    32.9650   -52.9780 HW2           1 RES     
    7830 OW          17.7740    10.3920   -39.3120 OW            1 RES     
    7831 HW1         17.6800    10.5990   -38.3380 HW1           1 RES     
    7832 HW2         17.0370     9.7770   -39.5950 HW2           1 RES     
    7833 OW          34.4320    -1.1790   -51.6160 OW            1 RES     
    7834 HW1         34.9050    -1.3130   -50.7470 HW1           1 RES     
    7835 HW2         34.3850    -2.0480   -52.1090 HW2           1 RES     
    7836 OW          13.0610    11.4680   -50.7660 OW            1 RES     
    7837 HW1         14.0600    11.4630   -50.8070 HW1           1 RES     
    7838 HW2         12.6970    10.8140   -51.4290 HW2           1 RES     
    7839 OW          14.0700    30.9120   -32.9460 OW            1 RES     
    7840 HW1         13.3750    30.5210   -32.3440 HW1           1 RES     
    7841 HW2         14.1320    31.8980   -32.7890 HW2           1 RES     
    7842 OW          38.2020    21.6320   -47.0370 OW            1 RES     
    7843 HW1         39.1650    21.7140   -47.2920 HW1           1 RES     
    7844 HW2         38.0180    20.7010   -46.7220 HW2           1 RES     
    7845 OW           3.7140    33.3460   -50.7310 OW            1 RES     
    7846 HW1          4.5370    33.4180   -51.2930 HW1           1 RES     
    7847 HW2          3.3170    32.4340   -50.8370 HW2           1 RES     
    7848 OW          39.1770    15.2700   -42.0320 OW            1 RES     
    7849 HW1         38.6400    14.4440   -42.1970 HW1           1 RES     
    7850 HW2         39.1880    15.4710   -41.0520 HW2           1 RES     
    7851 OW           3.1530    25.7440   -41.5720 OW            1 RES     
    7852 HW1          2.7700    25.4820   -40.6880 HW1           1 RES     
    7853 HW2          4.0670    25.3500   -41.6710 HW2           1 RES     
    7854 OW          36.7120    22.9660   -33.0940 OW            1 RES     
    7855 HW1         37.2700    23.7960   -33.1130 HW1           1 RES     
    7856 HW2         36.5870    22.6700   -32.1470 HW2           1 RES     
    7857 OW          35.1450    31.0130   -38.7510 OW            1 RES     
    7858 HW1         34.7550    30.2180   -38.2870 HW1           1 RES     
    7859 HW2         34.7110    31.1240   -39.6450 HW2           1 RES     
    7860 OW           3.3950    10.2560   -50.9430 OW            1 RES     
    7861 HW1          4.0620    10.8420   -50.4840 HW1           1 RES     
    7862 HW2          3.5210     9.3100   -50.6450 HW2           1 RES     
    7863 OW          20.5140     5.2020   -38.8050 OW            1 RES     
    7864 HW1         19.9780     4.4980   -38.3390 HW1           1 RES     
    7865 HW2         19.8960     5.8650   -39.2290 HW2           1 RES     
    7866 OW           3.3400    30.6510   -38.3950 OW            1 RES     
    7867 HW1          3.9400    30.6210   -37.5960 HW1           1 RES     
    7868 HW2          2.6310    29.9520   -38.3070 HW2           1 RES     
    7869 OW          10.3660    37.6230   -51.0880 OW            1 RES     
    7870 HW1         10.4160    37.1560   -50.2060 HW1           1 RES     
    7871 HW2          9.7270    37.1390   -51.6870 HW2           1 RES     
    7872 OW          35.8820    -0.1080   -44.2030 OW            1 RES     
    7873 HW1         35.4450     0.5870   -43.6330 HW1           1 RES     
    7874 HW2         36.1870    -0.8680   -43.6290 HW2           1 RES     
    7875 OW          21.5300     4.4720   -36.3410 OW            1 RES     
    7876 HW1         22.2030     3.7330   -36.3460 HW1           1 RES     
    7877 HW2         21.7900     5.1650   -37.0130 HW2           1 RES     
    7878 OW          11.7870     9.3220   -30.8450 OW            1 RES     
    7879 HW1         12.7460     9.6040   -30.8450 HW1           1 RES     
    7880 HW2         11.7320     8.3230   -30.8480 HW2           1 RES     
    7881 OW          37.0990    10.2580   -47.1040 OW            1 RES     
    7882 HW1         38.0440    10.0090   -46.8910 HW1           1 RES     
    7883 HW2         37.0100    10.4180   -48.0880 HW2           1 RES     
    7884 OW           8.4220    25.7530   -51.7560 OW            1 RES     
    7885 HW1          8.0510    26.4260   -52.3950 HW1           1 RES     
    7886 HW2          7.7110    25.0900   -51.5190 HW2           1 RES     
    7887 OW          27.8100    17.5000   -35.5060 OW            1 RES     
    7888 HW1         27.2840    17.0360   -36.2190 HW1           1 RES     
    7889 HW2         27.2290    17.6480   -34.7060 HW2           1 RES     
    7890 OW           5.6430    10.4210   -30.8460 OW            1 RES     
    7891 HW1          4.9790     9.9130   -31.3940 HW1           1 RES     
    7892 HW2          6.3190    10.8450   -31.4490 HW2           1 RES     
    7893 OW          22.7960    10.3310   -35.5800 OW            1 RES     
    7894 HW1         23.6300    10.8090   -35.3100 HW1           1 RES     
    7895 HW2         22.0000    10.8870   -35.3390 HW2           1 RES     
    7896 OW           2.6740     0.8220   -51.1650 OW            1 RES     
    7897 HW1          3.0240     1.7060   -51.4750 HW1           1 RES     
    7898 HW2          1.7170     0.9200   -50.8910 HW2           1 RES     
    7899 OW           3.6580    29.5400   -30.8550 OW            1 RES     
    7900 HW1          3.3110    30.4770   -30.8450 HW1           1 RES     
    7901 HW2          2.8910    28.9020   -30.9310 HW2           1 RES     
    7902 OW          35.7330    23.4010   -42.0670 OW            1 RES     
    7903 HW1         34.9220    22.8240   -41.9740 HW1           1 RES     
    7904 HW2         36.5550    22.8380   -41.9870 HW2           1 RES     
    7905 OW          21.9140    16.3350   -47.8040 OW            1 RES     
    7906 HW1         22.4520    15.5050   -47.6620 HW1           1 RES     
    7907 HW2         21.0770    16.1090   -48.3040 HW2           1 RES     
    7908 OW          18.7580    28.6370   -48.5850 OW            1 RES     
    7909 HW1         19.6520    28.9440   -48.2600 HW1           1 RES     
    7910 HW2         18.3020    29.3870   -49.0660 HW2           1 RES     
    7911 OW          35.4250     2.9440   -49.9090 OW            1 RES     
    7912 HW1         36.2890     3.0330   -50.4030 HW1           1 RES     
    7913 HW2         35.5920     3.0260   -48.9260 HW2           1 RES     
    7914 OW           2.0540     4.4700   -35.1190 OW            1 RES     
    7915 HW1          2.0380     3.9800   -35.9900 HW1           1 RES     
    7916 HW2          1.1190     4.5830   -34.7830 HW2           1 RES     
    7917 OW           2.5540    -0.7910   -41.9640 OW            1 RES     
    7918 HW1          2.7950     0.0330   -42.4750 HW1           1 RES     
    7919 HW2          2.1360    -1.4580   -42.5810 HW2           1 RES     
    7920 OW           9.7340     8.9720   -32.5710 OW            1 RES     
    7921 HW1         10.2670     9.7920   -32.3660 HW1           1 RES     
    7922 HW2          8.9280     9.2240   -33.1080 HW2           1 RES     
    7923 OW          12.4720     7.8260   -36.9390 OW            1 RES     
    7924 HW1         12.6660     6.9560   -37.3910 HW1           1 RES     
    7925 HW2         12.4110     7.6820   -35.9510 HW2           1 RES     
    7926 OW          29.6380     9.9370   -46.6280 OW            1 RES     
    7927 HW1         28.8040     9.6680   -47.1070 HW1           1 RES     
    7928 HW2         30.3230     9.2130   -46.7170 HW2           1 RES     
    7929 OW           7.7900    24.4810   -43.5690 OW            1 RES     
    7930 HW1          7.8300    24.2950   -42.5880 HW1           1 RES     
    7931 HW2          8.5440    24.0120   -44.0300 HW2           1 RES     
    7932 OW          31.3570     5.3780   -41.8710 OW            1 RES     
    7933 HW1         31.4050     5.4760   -40.8780 HW1           1 RES     
    7934 HW2         32.2440     5.0740   -42.2200 HW2           1 RES     
    7935 OW          35.1980    15.8520   -54.3070 OW            1 RES     
    7936 HW1         35.7020    16.7140   -54.2900 HW1           1 RES     
    7937 HW2         34.2210    16.0380   -54.4170 HW2           1 RES     
    7938 OW           3.8300     1.4680   -44.8420 OW            1 RES     
    7939 HW1          3.0500     1.3340   -44.2320 HW1           1 RES     
    7940 HW2          4.2730     0.5890   -45.0170 HW2           1 RES     
    7941 OW          38.2620    16.3130   -51.0600 OW            1 RES     
    7942 HW1         39.1820    16.0060   -50.8200 HW1           1 RES     
    7943 HW2         38.2810    17.2900   -51.2730 HW2           1 RES     
    7944 OW          27.6190     3.0180   -53.7590 OW            1 RES     
    7945 HW1         28.5580     2.9370   -53.4280 HW1           1 RES     
    7946 HW2         27.3580     2.1780   -54.2340 HW2           1 RES     
    7947 OW          20.7830    14.5430   -46.4620 OW            1 RES     
    7948 HW1         19.9030    14.9000   -46.7730 HW1           1 RES     
    7949 HW2         21.1820    15.1720   -45.7950 HW2           1 RES     
    7950 OW          31.6140    25.9010   -37.8050 OW            1 RES     
    7951 HW1         30.7240    25.4760   -37.9680 HW1           1 RES     
    7952 HW2         32.3370    25.2230   -37.9340 HW2           1 RES     
    7953 OW          32.5190    27.7650   -47.0350 OW            1 RES     
    7954 HW1         32.8650    26.8280   -47.0470 HW1           1 RES     
    7955 HW2         33.2870    28.4050   -47.0600 HW2           1 RES     
    7956 OW          31.4900    11.3210   -42.4740 OW            1 RES     
    7957 HW1         31.3370    11.1000   -41.5120 HW1           1 RES     
    7958 HW2         30.8140    10.8450   -43.0370 HW2           1 RES     
    7959 OW          22.4010    10.3470   -46.3190 OW            1 RES     
    7960 HW1         23.3680    10.5890   -46.3800 HW1           1 RES     
    7961 HW2         21.8500    11.1810   -46.2660 HW2           1 RES     
    7962 OW          28.4200     4.7480   -39.8220 OW            1 RES     
    7963 HW1         28.3950     4.8910   -38.8330 HW1           1 RES     
    7964 HW2         28.9250     3.9100   -40.0260 HW2           1 RES     
    7965 OW          19.7440    10.6480   -52.0080 OW            1 RES     
    7966 HW1         20.7180    10.5710   -52.2180 HW1           1 RES     
    7967 HW2         19.4890    11.6140   -51.9530 HW2           1 RES     
    7968 OW          27.6100    17.3780   -41.1240 OW            1 RES     
    7969 HW1         26.9840    17.0530   -40.4170 HW1           1 RES     
    7970 HW2         27.6330    18.3780   -41.1150 HW2           1 RES     
    7971 OW          13.5950    27.0650   -30.8450 OW            1 RES     
    7972 HW1         13.5250    28.0560   -30.9570 HW1           1 RES     
    7973 HW2         14.5340    26.7740   -31.0280 HW2           1 RES     
    7974 OW          30.8420    38.0960   -45.1850 OW            1 RES     
    7975 HW1         30.8450    37.8860   -46.1620 HW1           1 RES     
    7976 HW2         29.9150    38.3410   -44.8980 HW2           1 RES     
    7977 OW          27.5950    25.5160   -54.3860 OW            1 RES     
    7978 HW1         28.4840    25.9710   -54.4210 HW1           1 RES     
    7979 HW2         26.8710    26.2020   -54.3200 HW2           1 RES     
    7980 OW          21.8140    26.8420   -51.1170 OW            1 RES     
    7981 HW1         21.9310    25.8750   -50.8930 HW1           1 RES     
    7982 HW2         22.6050    27.3590   -50.7890 HW2           1 RES     
    7983 OW          38.1020     7.9620   -49.2810 OW            1 RES     
    7984 HW1         38.4360     8.8810   -49.0730 HW1           1 RES     
    7985 HW2         38.7470     7.2850   -48.9260 HW2           1 RES     
    7986 OW          10.5680    28.9040   -34.9730 OW            1 RES     
    7987 HW1         10.4690    29.8560   -34.6880 HW1           1 RES     
    7988 HW2         11.1550    28.4200   -34.3240 HW2           1 RES     
    7989 OW          35.5090    10.7600   -51.8760 OW            1 RES     
    7990 HW1         35.7490    10.6710   -50.9100 HW1           1 RES     
    7991 HW2         36.3420    10.8590   -52.4190 HW2           1 RES     
    7992 OW          26.5980     5.0870   -53.5810 OW            1 RES     
    7993 HW1         26.2210     4.6990   -54.4210 HW1           1 RES     
    7994 HW2         26.2970     4.5440   -52.7970 HW2           1 RES     
    7995 OW          13.1810    21.4890   -52.2060 OW            1 RES     
    7996 HW1         12.2080    21.6580   -52.3590 HW1           1 RES     
    7997 HW2         13.6880    21.6730   -53.0480 HW2           1 RES     
    7998 OW          21.2870    22.9090   -35.1820 OW            1 RES     
    7999 HW1         21.8930    23.7040   -35.2070 HW1           1 RES     
    8000 HW2         21.7040    22.1900   -34.6260 HW2           1 RES     
    8001 OW          38.9820    12.8780   -43.7070 OW            1 RES     
    8002 HW1         39.1540    12.0240   -43.2160 HW1           1 RES     
    8003 HW2         39.1880    12.7530   -44.6770 HW2           1 RES     
    8004 OW          18.5160     6.1030   -42.1120 OW            1 RES     
    8005 HW1         18.8550     6.4200   -41.2270 HW1           1 RES     
    8006 HW2         19.2820     5.7700   -42.6630 HW2           1 RES     
    8007 OW          28.0220     6.9300   -43.0650 OW            1 RES     
    8008 HW1         28.3920     6.6280   -43.9420 HW1           1 RES     
    8009 HW2         28.5410     6.5100   -42.3200 HW2           1 RES     
    8010 OW          34.4310    14.4070   -46.1350 OW            1 RES     
    8011 HW1         34.1010    13.5890   -46.6050 HW1           1 RES     
    8012 HW2         35.3820    14.2710   -45.8550 HW2           1 RES     
    8013 OW          11.7620    12.5070   -49.3260 OW            1 RES     
    8014 HW1         10.8230    12.7020   -49.0440 HW1           1 RES     
    8015 HW2         12.1370    11.7770   -48.7550 HW2           1 RES     
    8016 OW          28.9710    10.0930   -31.1460 OW            1 RES     
    8017 HW1         28.9410    10.1680   -32.1420 HW1           1 RES     
    8018 HW2         28.3380     9.3800   -30.8460 HW2           1 RES     
    8019 OW          30.8380    19.5990   -40.1250 OW            1 RES     
    8020 HW1         31.1380    19.2570   -41.0150 HW1           1 RES     
    8021 HW2         30.9920    18.8980   -39.4290 HW2           1 RES     
    8022 OW          28.2590    18.9450   -43.6570 OW            1 RES     
    8023 HW1         28.6220    18.2020   -43.0950 HW1           1 RES     
    8024 HW2         27.8340    18.5650   -44.4780 HW2           1 RES     
    8025 OW          -0.0060     5.9630   -39.2050 OW            1 RES     
    8026 HW1         -0.0590     6.9610   -39.1880 HW1           1 RES     
    8027 HW2          0.9520     5.6790   -39.1660 HW2           1 RES     
    8028 OW          12.1440     0.3920   -54.0050 OW            1 RES     
    8029 HW1         11.1740     0.6010   -53.8930 HW1           1 RES     
    8030 HW2         12.2910    -0.5900   -53.8800 HW2           1 RES     
    8031 OW          37.0050    15.6100   -31.8130 OW            1 RES     
    8032 HW1         37.4950    14.8190   -31.4490 HW1           1 RES     
    8033 HW2         36.5000    16.0580   -31.0750 HW2           1 RES     
    8034 OW          33.4510    10.8030   -35.0660 OW            1 RES     
    8035 HW1         33.1610    10.7040   -36.0170 HW1           1 RES     
    8036 HW2         33.7240    11.7500   -34.8970 HW2           1 RES     
    8037 OW          21.6800     0.3000   -31.3310 OW            1 RES     
    8038 HW1         21.0370     0.8910   -30.8450 HW1           1 RES     
    8039 HW2         22.1220     0.8180   -32.0640 HW2           1 RES     
    8040 OW           0.7900    -0.0640   -44.3500 OW            1 RES     
    8041 HW1          1.5860    -0.6350   -44.5460 HW1           1 RES     
    8042 HW2          0.9510     0.8620   -44.6930 HW2           1 RES     
    8043 OW          17.0630     3.7190   -48.5620 OW            1 RES     
    8044 HW1         17.3790     3.8500   -47.6230 HW1           1 RES     
    8045 HW2         16.0900     3.9410   -48.6210 HW2           1 RES     
    8046 OW           4.4270    37.1140   -34.8730 OW            1 RES     
    8047 HW1          4.8950    37.5240   -34.0910 HW1           1 RES     
    8048 HW2          3.4960    36.8600   -34.6100 HW2           1 RES     
    8049 OW           8.9830    35.6900   -47.7410 OW            1 RES     
    8050 HW1          8.2490    36.3670   -47.7410 HW1           1 RES     
    8051 HW2          8.6720    34.8600   -47.2770 HW2           1 RES     
    8052 OW           5.6030     3.0290   -31.4850 OW            1 RES     
    8053 HW1          5.3550     2.3030   -30.8450 HW1           1 RES     
    8054 HW2          4.9270     3.0690   -32.2220 HW2           1 RES     
    8055 OW          37.8030    36.7720   -32.5310 OW            1 RES     
    8056 HW1         36.9350    36.3320   -32.7570 HW1           1 RES     
    8057 HW2         38.4430    36.6580   -33.2910 HW2           1 RES     
    8058 OW          11.4910     1.7140   -37.5130 OW            1 RES     
    8059 HW1         10.7470     1.0520   -37.4300 HW1           1 RES     
    8060 HW2         12.3680     1.2330   -37.5020 HW2           1 RES     
    8061 OW          38.7860    18.6730   -39.4090 OW            1 RES     
    8062 HW1         38.5890    19.1130   -38.5330 HW1           1 RES     
    8063 HW2         38.0560    18.0250   -39.6290 HW2           1 RES     
    8064 OW          19.1320     9.6220   -45.4530 OW            1 RES     
    8065 HW1         19.8990     9.9880   -44.9280 HW1           1 RES     
    8066 HW2         18.2860    10.0690   -45.1640 HW2           1 RES     
    8067 OW          25.7280    -0.9860   -35.5540 OW            1 RES     
    8068 HW1         26.3040    -1.5790   -36.1160 HW1           1 RES     
    8069 HW2         25.9130    -1.1610   -34.5860 HW2           1 RES     
    8070 OW          26.9620    31.8920   -34.1240 OW            1 RES     
    8071 HW1         26.3670    32.3730   -34.7680 HW1           1 RES     
    8072 HW2         27.1680    32.4890   -33.3490 HW2           1 RES     
    8073 OW           1.3030     8.5240   -40.9760 OW            1 RES     
    8074 HW1          0.6830     7.7510   -41.1030 HW1           1 RES     
    8075 HW2          0.7720     9.3560   -40.8150 HW2           1 RES     
    8076 OW           5.6630    22.5500   -52.5460 OW            1 RES     
    8077 HW1          6.5570    22.3220   -52.9310 HW1           1 RES     
    8078 HW2          5.0620    21.7530   -52.6030 HW2           1 RES     
    8079 OW          -0.9730    26.8780   -44.3130 OW            1 RES     
    8080 HW1         -1.0050    26.0400   -44.8550 HW1           1 RES     
    8081 HW2         -0.2050    26.8340   -43.6740 HW2           1 RES     
    8082 OW          -0.5850    14.6110   -50.7260 OW            1 RES     
    8083 HW1         -1.0020    15.1310   -51.4700 HW1           1 RES     
    8084 HW2         -0.9030    13.6630   -50.7610 HW2           1 RES     
    8085 OW           4.0080     2.9440   -46.4670 OW            1 RES     
    8086 HW1          3.1620     3.4710   -46.5470 HW1           1 RES     
    8087 HW2          4.7850     3.5690   -46.3960 HW2           1 RES     
    8088 OW          16.2270     6.6750   -39.8690 OW            1 RES     
    8089 HW1         15.2400     6.7740   -39.9900 HW1           1 RES     
    8090 HW2         16.7030     7.1280   -40.6220 HW2           1 RES     
    8091 OW          29.4690    32.8440   -44.2800 OW            1 RES     
    8092 HW1         29.4260    33.8220   -44.0800 HW1           1 RES     
    8093 HW2         28.5410    32.4750   -44.3450 HW2           1 RES     
    8094 OW          28.5280     5.4430   -34.5960 OW            1 RES     
    8095 HW1         28.9800     6.3210   -34.7480 HW1           1 RES     
    8096 HW2         27.6750     5.5890   -34.0930 HW2           1 RES     
    8097 OW          35.1630    21.5130   -54.3830 OW            1 RES     
    8098 HW1         35.5740    22.3040   -53.9300 HW1           1 RES     
    8099 HW2         35.8280    20.7670   -54.4200 HW2           1 RES     
    8100 OW          21.8880    26.8510   -42.3820 OW            1 RES     
    8101 HW1         21.6470    27.8200   -42.3460 HW1           1 RES     
    8102 HW2         22.2280    26.5580   -41.4880 HW2           1 RES     
    8103 OW           3.1870    19.5480   -41.1750 OW            1 RES     
    8104 HW1          3.8690    19.4760   -40.4480 HW1           1 RES     
    8105 HW2          3.1620    20.4870   -41.5180 HW2           1 RES     
    8106 OW          30.8590    36.1000   -51.0660 OW            1 RES     
    8107 HW1         30.1260    36.7740   -50.9780 HW1           1 RES     
    8108 HW2         30.4640    35.1850   -51.1460 HW2           1 RES     
    8109 OW          20.6880    28.6580   -45.2530 OW            1 RES     
    8110 HW1         20.7090    29.5870   -45.6210 HW1           1 RES     
    8111 HW2         19.7480    28.3160   -45.2640 HW2           1 RES     
    8112 OW          10.5980    26.7890   -45.8410 OW            1 RES     
    8113 HW1         11.0570    27.5530   -46.2940 HW1           1 RES     
    8114 HW2         10.0840    27.1290   -45.0530 HW2           1 RES     
    8115 OW          37.3990    20.8130   -42.2990 OW            1 RES     
    8116 HW1         38.3500    21.0220   -42.5240 HW1           1 RES     
    8117 HW2         37.0950    20.0230   -42.8320 HW2           1 RES     
    8118 OW          34.1850     2.8660   -37.8020 OW            1 RES     
    8119 HW1         34.6100     3.7690   -37.8610 HW1           1 RES     
    8120 HW2         34.4030     2.4510   -36.9190 HW2           1 RES     
    8121 OW          27.2570    24.4080   -39.2290 OW            1 RES     
    8122 HW1         26.7480    25.2680   -39.2290 HW1           1 RES     
    8123 HW2         28.2390    24.6020   -39.2290 HW2           1 RES     
    8124 OW           2.2410    21.6210   -32.3070 OW            1 RES     
    8125 HW1          2.9500    21.8570   -31.6430 HW1           1 RES     
    8126 HW2          2.4050    20.6990   -32.6570 HW2           1 RES     
    8127 OW          27.0790    35.9470   -46.5830 OW            1 RES     
    8128 HW1         26.4790    35.6350   -47.3190 HW1           1 RES     
    8129 HW2         26.5820    36.5860   -45.9950 HW2           1 RES     
    8130 OW           2.1700    11.0900   -44.9600 OW            1 RES     
    8131 HW1          1.9490    12.0410   -45.1730 HW1           1 RES     
    8132 HW2          3.0640    11.0480   -44.5140 HW2           1 RES     
    8133 OW          24.1310    37.8670   -39.0410 OW            1 RES     
    8134 HW1         23.1950    38.0450   -38.7390 HW1           1 RES     
    8135 HW2         24.7720    38.3410   -38.4370 HW2           1 RES     
    8136 OW          37.4690    29.4840   -41.1680 OW            1 RES     
    8137 HW1         38.1720    29.1220   -40.5570 HW1           1 RES     
    8138 HW2         36.5730    29.1360   -40.8890 HW2           1 RES     
    8139 OW          38.6300    30.1160   -36.1120 OW            1 RES     
    8140 HW1         39.0250    29.7600   -35.2650 HW1           1 RES     
    8141 HW2         39.1880    29.8230   -36.8880 HW2           1 RES     
    8142 OW          17.2660    15.5530   -46.3060 OW            1 RES     
    8143 HW1         18.0260    16.1300   -46.0080 HW1           1 RES     
    8144 HW2         17.5770    14.9400   -47.0320 HW2           1 RES     
    8145 OW          29.9050    28.1720   -47.3910 OW            1 RES     
    8146 HW1         30.3200    27.3770   -46.9500 HW1           1 RES     
    8147 HW2         30.3340    28.3210   -48.2820 HW2           1 RES     
    8148 OW           1.4010    38.3390   -34.2140 OW            1 RES     
    8149 HW1          2.0310    38.2270   -33.4470 HW1           1 RES     
    8150 HW2          0.6440    37.6920   -34.1220 HW2           1 RES     
    8151 OW          32.3600    33.5090   -51.5490 OW            1 RES     
    8152 HW1         32.5390    34.4890   -51.6220 HW1           1 RES     
    8153 HW2         33.2260    33.0090   -51.5610 HW2           1 RES     
    8154 OW          30.2140    15.9350   -34.6900 OW            1 RES     
    8155 HW1         29.3750    16.3910   -34.3930 HW1           1 RES     
    8156 HW2         30.4470    15.2100   -34.0420 HW2           1 RES     
    8157 OW          37.5700     7.9350   -41.0960 OW            1 RES     
    8158 HW1         38.1890     7.2740   -41.5190 HW1           1 RES     
    8159 HW2         36.7470     8.0270   -41.6560 HW2           1 RES     
    8160 OW          25.5120    19.4810   -53.8080 OW            1 RES     
    8161 HW1         25.7830    19.3160   -52.8610 HW1           1 RES     
    8162 HW2         26.0950    18.9470   -54.4200 HW2           1 RES     
    8163 OW          37.1660    -1.6600   -37.9950 OW            1 RES     
    8164 HW1         36.7730    -2.0440   -37.1600 HW1           1 RES     
    8165 HW2         38.0750    -2.0480   -38.1460 HW2           1 RES     
    8166 OW          27.5550    27.0280   -34.6470 OW            1 RES     
    8167 HW1         26.7130    26.4920   -34.6850 HW1           1 RES     
    8168 HW2         27.7340    27.3020   -33.7020 HW2           1 RES     
    8169 OW          38.5050    22.6140   -54.2120 OW            1 RES     
    8170 HW1         39.1880    23.3130   -54.4210 HW1           1 RES     
    8171 HW2         38.9450    21.7170   -54.1760 HW2           1 RES     
    8172 OW          17.4810    13.4440   -53.1760 OW            1 RES     
    8173 HW1         18.3600    13.6740   -53.5940 HW1           1 RES     
    8174 HW2         17.1650    12.5630   -53.5290 HW2           1 RES     
    8175 OW          21.2440     7.0980   -37.9110 OW            1 RES     
    8176 HW1         20.5780     7.7840   -38.2020 HW1           1 RES     
    8177 HW2         22.1590     7.3760   -38.2030 HW2           1 RES     
    8178 OW          39.1040    33.7840   -44.1710 OW            1 RES     
    8179 HW1         38.3110    34.0710   -43.6360 HW1           1 RES     
    8180 HW2         39.0260    32.8100   -44.3870 HW2           1 RES     
    8181 OW          -0.8600     9.9590   -44.4650 OW            1 RES     
    8182 HW1         -1.0050    10.9340   -44.2990 HW1           1 RES     
    8183 HW2         -1.0040     9.7610   -45.4350 HW2           1 RES     
    8184 OW           8.1500    31.4520   -30.8900 OW            1 RES     
    8185 HW1          7.7160    32.3510   -30.8450 HW1           1 RES     
    8186 HW2          9.1300    31.5620   -31.0570 HW2           1 RES     
    8187 OW          28.4170     8.9600   -43.8420 OW            1 RES     
    8188 HW1         27.5030     9.3640   -43.8220 HW1           1 RES     
    8189 HW2         29.1040     9.6870   -43.8240 HW2           1 RES     
    8190 OW          16.5820    31.5320   -33.4230 OW            1 RES     
    8191 HW1         16.0410    31.6780   -34.2510 HW1           1 RES     
    8192 HW2         16.2610    30.7080   -32.9550 HW2           1 RES     
    8193 OW          11.0430    14.2460   -38.0110 OW            1 RES     
    8194 HW1         10.7310    13.2960   -38.0120 HW1           1 RES     
    8195 HW2         10.9580    14.6240   -37.0890 HW2           1 RES     
    8196 OW          17.5170    19.3320   -45.1550 OW            1 RES     
    8197 HW1         18.3360    19.8530   -44.9210 HW1           1 RES     
    8198 HW2         16.9450    19.2270   -44.3410 HW2           1 RES     
    8199 OW          24.7850    26.3240   -49.9200 OW            1 RES     
    8200 HW1         24.0490    25.7700   -50.3090 HW1           1 RES     
    8201 HW2         24.4040    26.9610   -49.2500 HW2           1 RES     
    8202 OW          31.9470    38.2310   -33.7800 OW            1 RES     
    8203 HW1         31.1250    38.3410   -33.2220 HW1           1 RES     
    8204 HW2         31.6860    38.0970   -34.7360 HW2           1 RES     
    8205 OW          26.2210     3.1050   -37.4200 OW            1 RES     
    8206 HW1         25.3520     3.1650   -37.9110 HW1           1 RES     
    8207 HW2         26.8560     2.5290   -37.9350 HW2           1 RES     
    8208 OW           8.6200    29.4320   -35.8490 OW            1 RES     
    8209 HW1          7.9130    28.7290   -35.7820 HW1           1 RES     
    8210 HW2          8.2020    30.3360   -35.7570 HW2           1 RES     
    8211 OW          10.3370    13.4030   -45.4980 OW            1 RES     
    8212 HW1          9.6740    12.9850   -44.8770 HW1           1 RES     
    8213 HW2         11.2620    13.1360   -45.2270 HW2           1 RES     
    8214 OW          36.7780    15.1010   -39.1240 OW            1 RES     
    8215 HW1         36.9900    15.4470   -40.0380 HW1           1 RES     
    8216 HW2         36.3110    14.2200   -39.2000 HW2           1 RES     
    8217 OW          27.2820    22.8700   -31.8390 OW            1 RES     
    8218 HW1         26.3250    22.5890   -31.7690 HW1           1 RES     
    8219 HW2         27.8680    22.0600   -31.8340 HW2           1 RES     
    8220 OW          24.2980     5.2050   -38.8100 OW            1 RES     
    8221 HW1         23.5570     4.5550   -38.6430 HW1           1 RES     
    8222 HW2         23.9480     6.1380   -38.7290 HW2           1 RES     
    8223 OW           1.1380     9.1040   -43.0920 OW            1 RES     
    8224 HW1          1.0480    10.0580   -43.3740 HW1           1 RES     
    8225 HW2          0.2320     8.6830   -43.0440 HW2           1 RES     
    8226 OW          30.5980     2.9750   -36.5240 OW            1 RES     
    8227 HW1         30.1390     3.8620   -36.5600 HW1           1 RES     
    8228 HW2         31.5770     3.0990   -36.6860 HW2           1 RES     
    8229 OW          16.3430    -0.6000   -48.8640 OW            1 RES     
    8230 HW1         15.6490     0.0720   -48.6100 HW1           1 RES     
    8231 HW2         15.9330    -1.5120   -48.8840 HW2           1 RES     
    8232 OW          35.6850    29.2120   -35.6470 OW            1 RES     
    8233 HW1         35.2910    29.9680   -36.1680 HW1           1 RES     
    8234 HW2         36.6110    29.0250   -35.9770 HW2           1 RES     
    8235 OW          13.1330    15.6530   -33.7100 OW            1 RES     
    8236 HW1         14.0960    15.4130   -33.8300 HW1           1 RES     
    8237 HW2         13.0280    16.6470   -33.7530 HW2           1 RES     
    8238 OW          -0.3960    28.8430   -45.5850 OW            1 RES     
    8239 HW1         -0.0760    29.6360   -46.1030 HW1           1 RES     
    8240 HW2          0.3050    28.5690   -44.9260 HW2           1 RES     
    8241 OW          20.8570    34.3710   -37.4520 OW            1 RES     
    8242 HW1         21.4190    34.9840   -38.0060 HW1           1 RES     
    8243 HW2         19.9070    34.4180   -37.7610 HW2           1 RES     
    8244 OW          34.1340    -1.0740   -42.7610 OW            1 RES     
    8245 HW1         33.8520    -2.0220   -42.6170 HW1           1 RES     
    8246 HW2         34.1360    -0.5890   -41.8870 HW2           1 RES     
    8247 OW          35.5950     5.3290   -46.4310 OW            1 RES     
    8248 HW1         35.4720     6.0650   -47.0960 HW1           1 RES     
    8249 HW2         36.5460     5.3160   -46.1190 HW2           1 RES     
    8250 OW          15.9020    31.6900   -50.9150 OW            1 RES     
    8251 HW1         16.2320    32.6140   -50.7270 HW1           1 RES     
    8252 HW2         15.2550    31.7150   -51.6770 HW2           1 RES     
    8253 OW          38.6110    18.6840   -43.8820 OW            1 RES     
    8254 HW1         39.1880    17.8730   -43.7960 HW1           1 RES     
    8255 HW2         39.1840    19.5040   -43.8810 HW2           1 RES     
    8256 OW          25.4370    12.3340   -38.6560 OW            1 RES     
    8257 HW1         24.5620    12.7920   -38.8140 HW1           1 RES     
    8258 HW2         26.0320    12.9290   -38.1160 HW2           1 RES     
    8259 OW          36.3250    32.6400   -51.7360 OW            1 RES     
    8260 HW1         37.1690    32.5620   -51.2060 HW1           1 RES     
    8261 HW2         36.1400    33.6040   -51.9300 HW2           1 RES     
    8262 OW           9.6860    27.5770   -50.2690 OW            1 RES     
    8263 HW1         10.2360    26.9410   -50.8090 HW1           1 RES     
    8264 HW2          9.9440    27.5080   -49.3060 HW2           1 RES     
    8265 OW          10.7410     8.7990   -43.0670 OW            1 RES     
    8266 HW1         11.1710     8.0760   -42.5280 HW1           1 RES     
    8267 HW2         11.4220     9.4950   -43.2960 HW2           1 RES     
    8268 OW          23.8660    18.7450   -44.7100 OW            1 RES     
    8269 HW1         24.0770    19.4480   -44.0310 HW1           1 RES     
    8270 HW2         24.5500    18.0170   -44.6600 HW2           1 RES     
    8271 OW           4.0320    24.2750   -36.6790 OW            1 RES     
    8272 HW1          3.7630    25.0370   -37.2660 HW1           1 RES     
    8273 HW2          3.4380    23.4900   -36.8590 HW2           1 RES     
    8274 OW          17.1440    27.8510   -39.3170 OW            1 RES     
    8275 HW1         16.3500    27.2490   -39.3960 HW1           1 RES     
    8276 HW2         17.2410    28.3880   -40.1560 HW2           1 RES     
    8277 OW          10.6680    10.5480   -47.2910 OW            1 RES     
    8278 HW1         10.2090    10.5320   -48.1790 HW1           1 RES     
    8279 HW2         10.7900    11.4960   -46.9960 HW2           1 RES     
    8280 OW          32.4980    25.3800   -31.5090 OW            1 RES     
    8281 HW1         33.1560    25.5990   -32.2280 HW1           1 RES     
    8282 HW2         31.7430    26.0360   -31.5370 HW2           1 RES     
    8283 OW          31.5660     7.2280   -52.3590 OW            1 RES     
    8284 HW1         31.4070     8.2110   -52.4460 HW1           1 RES     
    8285 HW2         31.4700     6.9580   -51.4010 HW2           1 RES     
    8286 OW          25.0400     0.3250   -33.2020 OW            1 RES     
    8287 HW1         25.7190     0.9320   -33.6140 HW1           1 RES     
    8288 HW2         24.2180     0.8490   -32.9740 HW2           1 RES     
    8289 OW          34.0770     5.3540   -39.8770 OW            1 RES     
    8290 HW1         33.7900     5.5070   -38.9320 HW1           1 RES     
    8291 HW2         34.5510     4.4760   -39.9450 HW2           1 RES     
    8292 OW          -0.0340    23.7660   -31.2070 OW            1 RES     
    8293 HW1          0.2840    23.0520   -31.8300 HW1           1 RES     
    8294 HW2         -1.0050    23.6300   -31.0110 HW2           1 RES     
    8295 OW          15.4110     9.7540   -47.0660 OW            1 RES     
    8296 HW1         15.9020    10.4150   -47.6320 HW1           1 RES     
    8297 HW2         15.2590    10.1410   -46.1560 HW2           1 RES     
    8298 OW           2.5250    19.8980   -51.7530 OW            1 RES     
    8299 HW1          3.3500    20.4610   -51.7200 HW1           1 RES     
    8300 HW2          2.7760    18.9330   -51.6820 HW2           1 RES     
    8301 OW          30.4260     6.9360   -33.1590 OW            1 RES     
    8302 HW1         29.8120     7.7240   -33.1420 HW1           1 RES     
    8303 HW2         31.3750     7.2520   -33.1860 HW2           1 RES     
    8304 OW          33.5280    15.2600   -52.4790 OW            1 RES     
    8305 HW1         32.5620    15.4100   -52.2700 HW1           1 RES     
    8306 HW2         33.6240    14.4330   -53.0350 HW2           1 RES     
    8307 OW          35.3540    26.5840   -52.7730 OW            1 RES     
    8308 HW1         35.9930    27.3170   -52.5440 HW1           1 RES     
    8309 HW2         35.8240    25.7020   -52.7190 HW2           1 RES     
    8310 OW           7.7020     5.6540   -40.2050 OW            1 RES     
    8311 HW1          8.2240     4.8080   -40.3060 HW1           1 RES     
    8312 HW2          8.3190     6.4010   -39.9560 HW2           1 RES     
    8313 OW          -1.0040    14.1650   -42.8480 OW            1 RES     
    8314 HW1         -0.9620    14.9410   -42.2190 HW1           1 RES     
    8315 HW2         -0.5350    13.3810   -42.4410 HW2           1 RES     
    8316 OW          -0.1390    16.5210   -44.5050 OW            1 RES     
    8317 HW1         -1.0050    17.0050   -44.6280 HW1           1 RES     
    8318 HW2         -0.3140    15.5400   -44.4210 HW2           1 RES     
    8319 OW          35.9580     3.5510   -42.6020 OW            1 RES     
    8320 HW1         36.9380     3.6420   -42.4250 HW1           1 RES     
    8321 HW2         35.7580     3.8540   -43.5330 HW2           1 RES     
    8322 OW          15.4970    10.6600   -38.0040 OW            1 RES     
    8323 HW1         15.8420    11.3630   -37.3830 HW1           1 RES     
    8324 HW2         14.5700    10.8980   -38.2960 HW2           1 RES     
    8325 OW          38.6830    13.2160   -39.6050 OW            1 RES     
    8326 HW1         37.9020    13.0830   -40.2150 HW1           1 RES     
    8327 HW2         38.3580    13.5020   -38.7040 HW2           1 RES     
    8328 OW           4.1850    26.3040   -34.7210 OW            1 RES     
    8329 HW1          4.4770    25.3920   -34.4350 HW1           1 RES     
    8330 HW2          3.4880    26.2230   -35.4330 HW2           1 RES     
    8331 OW          18.7280    -1.3240   -49.2540 OW            1 RES     
    8332 HW1         19.5310    -1.9170   -49.2820 HW1           1 RES     
    8333 HW2         19.0190    -0.3670   -49.2550 HW2           1 RES     
    8334 OW          34.7480    12.3230   -40.3810 OW            1 RES     
    8335 HW1         34.6400    13.2100   -40.8290 HW1           1 RES     
    8336 HW2         34.3290    11.6110   -40.9440 HW2           1 RES     
    8337 OW          18.0080    35.3490   -49.8150 OW            1 RES     
    8338 HW1         18.6290    34.7240   -49.3430 HW1           1 RES     
    8339 HW2         18.5190    36.1440   -50.1410 HW2           1 RES     
    8340 OW          14.1230     8.3030   -31.9640 OW            1 RES     
    8341 HW1         14.8900     8.1890   -31.3340 HW1           1 RES     
    8342 HW2         13.5990     7.4520   -32.0120 HW2           1 RES     
    8343 OW          18.9670    12.0060   -46.2690 OW            1 RES     
    8344 HW1         19.5280    12.7050   -45.8270 HW1           1 RES     
    8345 HW2         19.4530    11.6390   -47.0620 HW2           1 RES     
    8346 OW           9.1940     5.2570   -51.8460 OW            1 RES     
    8347 HW1          9.8320     4.8220   -52.4810 HW1           1 RES     
    8348 HW2          8.5530     4.5740   -51.4960 HW2           1 RES     
    8349 OW          11.6140     2.8030   -51.8700 OW            1 RES     
    8350 HW1         11.3140     1.8630   -52.0280 HW1           1 RES     
    8351 HW2         11.9150     2.9040   -50.9220 HW2           1 RES     
    8352 OW          37.6990    36.4520   -35.3600 OW            1 RES     
    8353 HW1         38.5850    36.4380   -35.8230 HW1           1 RES     
    8354 HW2         37.1010    35.7590   -35.7620 HW2           1 RES     
    8355 OW           3.9610    14.1140   -40.2510 OW            1 RES     
    8356 HW1          4.9490    14.2480   -40.3240 HW1           1 RES     
    8357 HW2          3.5480    14.9100   -39.8090 HW2           1 RES     
    8358 OW          12.5200    -1.0530   -37.9020 OW            1 RES     
    8359 HW1         13.3500    -0.6530   -38.2900 HW1           1 RES     
    8360 HW2         12.4970    -0.8840   -36.9160 HW2           1 RES     
    8361 OW          34.2630    10.1770   -37.9910 OW            1 RES     
    8362 HW1         35.0990    10.4340   -37.5070 HW1           1 RES     
    8363 HW2         33.7850    11.0010   -38.2950 HW2           1 RES     
    8364 OW          23.4970    25.1920   -34.8600 OW            1 RES     
    8365 HW1         24.4950    25.1640   -34.8940 HW1           1 RES     
    8366 HW2         23.1900    26.1430   -34.8260 HW2           1 RES     
    8367 OW          20.9200    26.6070   -46.0800 OW            1 RES     
    8368 HW1         21.9180    26.5470   -46.0860 HW1           1 RES     
    8369 HW2         20.5310    25.6850   -46.0750 HW2           1 RES     
    8370 OW           0.2460    28.4680   -37.8360 OW            1 RES     
    8371 HW1         -0.1850    27.6100   -37.5580 HW1           1 RES     
    8372 HW2         -0.4370    29.1980   -37.8480 HW2           1 RES     
    8373 OW          28.3010    26.6200   -38.3150 OW            1 RES     
    8374 HW1         27.5410    27.2690   -38.3000 HW1           1 RES     
    8375 HW2         29.0290    26.9450   -37.7100 HW2           1 RES     
    8376 OW           5.2050    33.3530   -53.7070 OW            1 RES     
    8377 HW1          4.4180    32.7370   -53.7290 HW1           1 RES     
    8378 HW2          4.8890    34.3010   -53.7560 HW2           1 RES     
    8379 OW           8.1940    16.4550   -41.8710 OW            1 RES     
    8380 HW1          8.5200    15.8770   -42.6180 HW1           1 RES     
    8381 HW2          8.7930    16.3470   -41.0780 HW2           1 RES     
    8382 OW          19.9640    33.0180   -47.7500 OW            1 RES     
    8383 HW1         20.1020    33.9990   -47.8790 HW1           1 RES     
    8384 HW2         20.8240    32.5350   -47.9160 HW2           1 RES     
    8385 OW           4.8480     5.9810   -36.5490 OW            1 RES     
    8386 HW1          4.6560     5.0210   -36.3470 HW1           1 RES     
    8387 HW2          5.3930     6.0440   -37.3850 HW2           1 RES     
    8388 OW          12.0500     9.6120   -40.8840 OW            1 RES     
    8389 HW1         12.0500    10.3390   -40.1980 HW1           1 RES     
    8390 HW2         12.7830     9.7760   -41.5440 HW2           1 RES     
    8391 OW          22.5930    25.0470   -39.1000 OW            1 RES     
    8392 HW1         22.2460    24.1210   -39.2430 HW1           1 RES     
    8393 HW2         23.5410    25.0030   -38.7840 HW2           1 RES     
    8394 OW          18.5990    13.7970   -30.8770 OW            1 RES     
    8395 HW1         18.4910    14.7900   -30.8850 HW1           1 RES     
    8396 HW2         19.5720    13.5670   -30.8450 HW2           1 RES     
    8397 OW          13.6740    33.9810   -48.7730 OW            1 RES     
    8398 HW1         14.2930    33.2140   -48.6080 HW1           1 RES     
    8399 HW2         14.1550    34.6950   -49.2830 HW2           1 RES     
    8400 OW          11.8470    23.3700   -31.0890 OW            1 RES     
    8401 HW1         12.4530    24.1300   -31.3180 HW1           1 RES     
    8402 HW2         11.7340    22.7800   -31.8890 HW2           1 RES     
    8403 OW           0.9740    27.9180   -31.3740 OW            1 RES     
    8404 HW1          0.0070    27.7950   -31.5950 HW1           1 RES     
    8405 HW2          1.3750    27.0350   -31.1320 HW2           1 RES     
    8406 OW          28.4200    13.1200   -52.1060 OW            1 RES     
    8407 HW1         28.6280    13.7230   -52.8750 HW1           1 RES     
    8408 HW2         27.5230    13.3560   -51.7300 HW2           1 RES     
    8409 OW           3.0020    31.0210   -44.7290 OW            1 RES     
    8410 HW1          3.6210    31.4890   -45.3580 HW1           1 RES     
    8411 HW2          3.5340    30.4960   -44.0650 HW2           1 RES     
    8412 OW          22.4640    -1.1440   -42.8840 OW            1 RES     
    8413 HW1         23.1520    -0.5830   -42.4230 HW1           1 RES     
    8414 HW2         22.8460    -2.0480   -43.0770 HW2           1 RES     
    8415 OW          16.5160    28.9830   -42.5240 OW            1 RES     
    8416 HW1         16.2820    28.7060   -43.4550 HW1           1 RES     
    8417 HW2         16.5810    29.9800   -42.4780 HW2           1 RES     
    8418 OW          25.1230    37.3620   -47.4470 OW            1 RES     
    8419 HW1         25.3180    37.1640   -48.4070 HW1           1 RES     
    8420 HW2         25.2450    38.3410   -47.2780 HW2           1 RES     
    8421 OW          36.3080    32.5830   -34.6390 OW            1 RES     
    8422 HW1         35.9990    33.4230   -35.0830 HW1           1 RES     
    8423 HW2         35.7300    32.3940   -33.8450 HW2           1 RES     
    8424 OW          22.5990    29.8830   -35.5390 OW            1 RES     
    8425 HW1         23.2330    30.6390   -35.3820 HW1           1 RES     
    8426 HW2         23.0510    29.0180   -35.3230 HW2           1 RES     
    8427 OW          21.7750    13.4540   -48.1050 OW            1 RES     
    8428 HW1         22.4520    12.8370   -47.7030 HW1           1 RES     
    8429 HW2         20.8710    13.0280   -48.0660 HW2           1 RES     
    8430 OW           8.0180    13.5100   -47.2320 OW            1 RES     
    8431 HW1          8.8940    13.3890   -47.6980 HW1           1 RES     
    8432 HW2          8.1780    13.7840   -46.2840 HW2           1 RES     
    8433 OW          37.8440    37.3420   -54.0140 OW            1 RES     
    8434 HW1         37.8150    38.3400   -54.0580 HW1           1 RES     
    8435 HW2         38.7620    37.0230   -54.2500 HW2           1 RES     
    8436 OW          22.1510    29.1040   -47.3350 OW            1 RES     
    8437 HW1         23.1090    28.8220   -47.2780 HW1           1 RES     
    8438 HW2         22.0910    30.0990   -47.2600 HW2           1 RES     
    8439 OW          20.8140    13.0650   -50.9640 OW            1 RES     
    8440 HW1         21.0450    13.9800   -50.6350 HW1           1 RES     
    8441 HW2         20.6090    12.4720   -50.1850 HW2           1 RES     
    8442 OW          23.6730    -1.1300   -34.7340 OW            1 RES     
    8443 HW1         23.5120    -0.4450   -35.4440 HW1           1 RES     
    8444 HW2         23.8260    -2.0220   -35.1580 HW2           1 RES     
    8445 OW          20.2670    -1.0310   -44.2280 OW            1 RES     
    8446 HW1         19.2770    -1.1640   -44.2320 HW1           1 RES     
    8447 HW2         20.4720    -0.0520   -44.2190 HW2           1 RES     
    8448 OW          26.7070    20.3900   -41.4470 OW            1 RES     
    8449 HW1         26.0480    21.1320   -41.3310 HW1           1 RES     
    8450 HW2         27.6340    20.7670   -41.4640 HW2           1 RES     
    8451 OW          37.1100    28.7780   -32.9400 OW            1 RES     
    8452 HW1         36.8290    29.2830   -33.7560 HW1           1 RES     
    8453 HW2         37.2670    27.8200   -33.1790 HW2           1 RES     
    8454 OW          18.8060    22.6280   -43.4360 OW            1 RES     
    8455 HW1         19.5010    22.7290   -42.7250 HW1           1 RES     
    8456 HW2         18.5940    21.6590   -43.5620 HW2           1 RES     
    8457 OW           1.3420    37.7090   -47.9890 OW            1 RES     
    8458 HW1          2.1000    37.2830   -47.4960 HW1           1 RES     
    8459 HW2          1.7030    38.3410   -48.6760 HW2           1 RES     
    8460 OW          33.8190    16.0500   -35.0440 OW            1 RES     
    8461 HW1         34.0730    15.1830   -35.4710 HW1           1 RES     
    8462 HW2         32.8580    16.0170   -34.7680 HW2           1 RES     
    8463 OW          19.4280    19.2910   -49.7180 OW            1 RES     
    8464 HW1         18.5400    18.8350   -49.7610 HW1           1 RES     
    8465 HW2         20.1530    18.6050   -49.6530 HW2           1 RES     
    8466 OW          11.8260    14.1810   -34.8460 OW            1 RES     
    8467 HW1         11.9410    13.4460   -35.5120 HW1           1 RES     
    8468 HW2         11.3130    13.8410   -34.0580 HW2           1 RES     
    8469 OW          31.1970    19.6670   -36.1850 OW            1 RES     
    8470 HW1         30.8560    20.3660   -35.5570 HW1           1 RES     
    8471 HW2         32.1830    19.7810   -36.3080 HW2           1 RES     
    8472 OW           5.3750     8.6190   -36.9230 OW            1 RES     
    8473 HW1          6.0940     7.9930   -36.6220 HW1           1 RES     
    8474 HW2          4.5980     8.0930   -37.2700 HW2           1 RES     
    8475 OW          36.9730     2.1120   -47.0330 OW            1 RES     
    8476 HW1         37.1040     1.7400   -47.9520 HW1           1 RES     
    8477 HW2         36.8040     3.0960   -47.0920 HW2           1 RES     
    8478 OW           1.0220    22.7980   -50.2770 OW            1 RES     
    8479 HW1          1.7930    23.4240   -50.3900 HW1           1 RES     
    8480 HW2          0.3070    23.0270   -50.9380 HW2           1 RES     
    8481 OW          38.2700     7.9810   -44.3450 OW            1 RES     
    8482 HW1         37.8990     8.4330   -43.5340 HW1           1 RES     
    8483 HW2         38.8330     8.6280   -44.8600 HW2           1 RES     
    8484 OW          -0.8870     1.2680   -38.9540 OW            1 RES     
    8485 HW1         -0.8700     1.7950   -39.8030 HW1           1 RES     
    8486 HW2         -1.0020     0.2970   -39.1660 HW2           1 RES     
    8487 OW           0.5650    26.3150   -49.9980 OW            1 RES     
    8488 HW1         -0.1190    26.5050   -50.7010 HW1           1 RES     
    8489 HW2          1.4810    26.4350   -50.3820 HW2           1 RES     
    8490 OW          15.6520    21.3870   -34.5520 OW            1 RES     
    8491 HW1         15.2520    20.7410   -33.9040 HW1           1 RES     
    8492 HW2         16.3350    20.9180   -35.1130 HW2           1 RES     
    8493 OW          33.1850    21.6190   -33.2240 OW            1 RES     
    8494 HW1         33.9180    20.9780   -32.9980 HW1           1 RES     
    8495 HW2         33.0570    21.6420   -34.2160 HW2           1 RES     
    8496 OW          14.5840     2.1280   -50.3970 OW            1 RES     
    8497 HW1         13.6880     2.0000   -49.9730 HW1           1 RES     
    8498 HW2         15.2990     2.0130   -49.7070 HW2           1 RES     
    8499 OW          34.3880     8.0280   -36.4210 OW            1 RES     
    8500 HW1         35.2940     8.3600   -36.6770 HW1           1 RES     
    8501 HW2         34.4500     7.5120   -35.5660 HW2           1 RES     
    8502 OW          28.9060     9.8670   -50.9650 OW            1 RES     
    8503 HW1         28.6630     9.0300   -51.4550 HW1           1 RES     
    8504 HW2         28.1520    10.5210   -51.0280 HW2           1 RES     
    8505 OW          18.8870    -0.3860   -47.0470 OW            1 RES     
    8506 HW1         17.9540    -0.6200   -47.3180 HW1           1 RES     
    8507 HW2         19.2430    -1.0890   -46.4310 HW2           1 RES     
    8508 OW          21.2110    17.9810   -38.3940 OW            1 RES     
    8509 HW1         21.8370    17.5550   -39.0470 HW1           1 RES     
    8510 HW2         20.2780    17.9450   -38.7540 HW2           1 RES     
    8511 OW           7.7610    13.0610   -31.0320 OW            1 RES     
    8512 HW1          7.2190    13.9000   -31.0330 HW1           1 RES     
    8513 HW2          8.7320    13.2910   -31.0970 HW2           1 RES     
    8514 OW          32.0400    26.5640   -44.2950 OW            1 RES     
    8515 HW1         32.1860    25.5770   -44.2460 HW1           1 RES     
    8516 HW2         31.0590    26.7580   -44.2800 HW2           1 RES     
    8517 OW          14.6060    24.4780   -31.6820 OW            1 RES     
    8518 HW1         14.4590    25.0980   -32.4510 HW1           1 RES     
    8519 HW2         15.4180    24.7640   -31.1720 HW2           1 RES     
    8520 OW          13.6510    23.4660   -36.7460 OW            1 RES     
    8521 HW1         13.4460    22.4890   -36.6960 HW1           1 RES     
    8522 HW2         14.6150    23.6160   -36.5260 HW2           1 RES     
    8523 OW          25.1470    28.0730   -42.2080 OW            1 RES     
    8524 HW1         25.6550    28.9190   -42.0510 HW1           1 RES     
    8525 HW2         25.7870    27.3100   -42.2930 HW2           1 RES     
    8526 OW          31.8990    29.3200   -35.9760 OW            1 RES     
    8527 HW1         32.1180    30.2090   -36.3770 HW1           1 RES     
    8528 HW2         30.9970    29.3610   -35.5470 HW2           1 RES     
    8529 OW          32.5160    32.0890   -32.3640 OW            1 RES     
    8530 HW1         32.9810    32.1950   -31.4860 HW1           1 RES     
    8531 HW2         33.1810    32.1710   -33.1060 HW2           1 RES     
    8532 OW          38.4780    31.3080   -49.3770 OW            1 RES     
    8533 HW1         38.2920    30.3810   -49.7000 HW1           1 RES     
    8534 HW2         39.1880    31.7240   -49.9450 HW2           1 RES     
    8535 OW          12.6190    31.3910   -40.4490 OW            1 RES     
    8536 HW1         12.7300    31.1030   -39.4980 HW1           1 RES     
    8537 HW2         11.6530    31.3420   -40.7030 HW2           1 RES     
    8538 OW          39.1540    11.0870   -49.5600 OW            1 RES     
    8539 HW1         38.2730    10.8780   -49.9830 HW1           1 RES     
    8540 HW2         39.0730    11.0170   -48.5660 HW2           1 RES     
    8541 OW          19.1080    32.3590   -33.4420 OW            1 RES     
    8542 HW1         18.7070    31.6730   -34.0470 HW1           1 RES     
    8543 HW2         19.9680    32.6870   -33.8330 HW2           1 RES     
    8544 OW          26.4060     6.1620   -38.0640 OW            1 RES     
    8545 HW1         26.5440     5.2900   -37.5950 HW1           1 RES     
    8546 HW2         26.5060     6.0300   -39.0500 HW2           1 RES     
    8547 OW          21.8890     3.2760   -52.2060 OW            1 RES     
    8548 HW1         22.8510     3.4500   -52.0020 HW1           1 RES     
    8549 HW2         21.7840     2.3440   -52.5540 HW2           1 RES     
    8550 OW          38.0460    28.2700   -50.2680 OW            1 RES     
    8551 HW1         37.5590    28.5740   -51.0860 HW1           1 RES     
    8552 HW2         37.5750    27.4800   -49.8750 HW2           1 RES     
    8553 OW           3.9800    36.7050   -52.3850 OW            1 RES     
    8554 HW1          4.2500    36.9160   -51.4470 HW1           1 RES     
    8555 HW2          3.8910    37.5550   -52.9060 HW2           1 RES     
    8556 OW          22.6380     6.2860   -48.6050 OW            1 RES     
    8557 HW1         22.3890     5.3560   -48.3350 HW1           1 RES     
    8558 HW2         22.1970     6.5100   -49.4750 HW2           1 RES     
    8559 OW          29.3890     6.3720   -48.8590 OW            1 RES     
    8560 HW1         30.1670     5.7780   -49.0590 HW1           1 RES     
    8561 HW2         28.5380     5.8930   -49.0740 HW2           1 RES     
    8562 OW           9.4640    33.2380   -35.8490 OW            1 RES     
    8563 HW1          9.1310    32.3270   -35.6110 HW1           1 RES     
    8564 HW2          9.4880    33.3350   -36.8440 HW2           1 RES     
    8565 OW          30.0470    22.0140   -33.6560 OW            1 RES     
    8566 HW1         29.9710    21.4810   -32.8130 HW1           1 RES     
    8567 HW2         29.1680    22.0110   -34.1330 HW2           1 RES     
    8568 OW           6.6850     8.5410   -48.3510 OW            1 RES     
    8569 HW1          6.1440     9.3140   -48.0220 HW1           1 RES     
    8570 HW2          7.4830     8.4170   -47.7600 HW2           1 RES     
    8571 OW          19.4350    14.6100   -40.7300 OW            1 RES     
    8572 HW1         19.1750    13.6510   -40.8370 HW1           1 RES     
    8573 HW2         20.2680    14.7910   -41.2530 HW2           1 RES     
    8574 OW          19.7030     7.2620   -35.0470 OW            1 RES     
    8575 HW1         20.1190     6.6030   -34.4220 HW1           1 RES     
    8576 HW2         19.0400     6.7940   -35.6320 HW2           1 RES     
    8577 OW          11.8170     4.9770   -38.0520 OW            1 RES     
    8578 HW1         11.9140     3.9970   -37.8840 HW1           1 RES     
    8579 HW2         10.8650     5.2480   -37.9050 HW2           1 RES     
    8580 OW          33.7210     5.3860   -31.5450 OW            1 RES     
    8581 HW1         32.7290     5.3840   -31.6670 HW1           1 RES     
    8582 HW2         34.1270     4.6640   -32.1060 HW2           1 RES     
    8583 OW           2.2950    33.6040   -41.6520 OW            1 RES     
    8584 HW1          1.9120    32.7710   -41.2540 HW1           1 RES     
    8585 HW2          3.2500    33.6990   -41.3710 HW2           1 RES     
    8586 OW          15.9150    20.9530   -45.2460 OW            1 RES     
    8587 HW1         16.7490    21.3830   -44.9030 HW1           1 RES     
    8588 HW2         15.1410    21.5720   -45.1140 HW2           1 RES     
    8589 OW           6.7850    21.6870   -50.7200 OW            1 RES     
    8590 HW1          7.3460    20.9540   -51.1010 HW1           1 RES     
    8591 HW2          7.3020    22.5440   -50.7310 HW2           1 RES     
    8592 OW          18.4220     7.4990   -37.6420 OW            1 RES     
    8593 HW1         18.4000     7.9850   -38.5150 HW1           1 RES     
    8594 HW2         17.5940     6.9470   -37.5460 HW2           1 RES     
    8595 OW           5.8530    -0.6440   -34.1260 OW            1 RES     
    8596 HW1          5.3140    -1.4850   -34.0930 HW1           1 RES     
    8597 HW2          6.8160    -0.8700   -34.2720 HW2           1 RES     
    8598 OW          19.9390     7.9860   -43.4650 OW            1 RES     
    8599 HW1         20.7520     8.5660   -43.4320 HW1           1 RES     
    8600 HW2         19.1210     8.5500   -43.3470 HW2           1 RES     
    8601 OW          21.8730    31.5450   -49.7540 OW            1 RES     
    8602 HW1         21.0120    31.0780   -49.5540 HW1           1 RES     
    8603 HW2         22.4690    31.5030   -48.9520 HW2           1 RES     
    8604 OW          37.2160    22.7670   -49.5220 OW            1 RES     
    8605 HW1         36.9030    22.1610   -48.7920 HW1           1 RES     
    8606 HW2         37.9600    23.3420   -49.1820 HW2           1 RES     
    8607 OW          20.4100     4.0140   -40.9030 OW            1 RES     
    8608 HW1         19.4550     3.9580   -40.6160 HW1           1 RES     
    8609 HW2         20.4560     4.0720   -41.9000 HW2           1 RES     
    8610 OW           9.9350    35.4750   -37.5060 OW            1 RES     
    8611 HW1          9.4480    36.1620   -38.0440 HW1           1 RES     
    8612 HW2          9.6230    35.5120   -36.5560 HW2           1 RES     
    8613 OW          -0.1760     6.9930   -47.8960 OW            1 RES     
    8614 HW1         -1.0050     6.4710   -48.0920 HW1           1 RES     
    8615 HW2         -0.2120     7.8690   -48.3780 HW2           1 RES     
    8616 OW          35.1190    23.9210   -34.6630 OW            1 RES     
    8617 HW1         34.9540    22.9630   -34.4290 HW1           1 RES     
    8618 HW2         34.6130    24.1540   -35.4930 HW2           1 RES     
    8619 OW           7.4860    37.5230   -51.9930 OW            1 RES     
    8620 HW1          7.7940    38.1760   -52.6840 HW1           1 RES     
    8621 HW2          6.6580    37.0630   -52.3150 HW2           1 RES     
    8622 OW          14.5450    13.5890   -35.5310 OW            1 RES     
    8623 HW1         13.9460    14.2540   -35.9750 HW1           1 RES     
    8624 HW2         14.0210    13.0640   -34.8600 HW2           1 RES     
    8625 OW          -0.5480     9.2870   -36.1770 OW            1 RES     
    8626 HW1         -0.0890     9.3390   -37.0640 HW1           1 RES     
    8627 HW2         -0.8660    10.1980   -35.9120 HW2           1 RES     
    8628 OW          34.9000    32.1430   -53.9220 OW            1 RES     
    8629 HW1         35.7130    31.6550   -53.6060 HW1           1 RES     
    8630 HW2         35.0140    33.1230   -53.7580 HW2           1 RES     
    8631 OW           3.0890    27.4660   -39.0540 OW            1 RES     
    8632 HW1          3.7750    28.1240   -38.7430 HW1           1 RES     
    8633 HW2          3.4050    26.5380   -38.8600 HW2           1 RES     
    8634 OW           6.1210    24.8300   -53.0470 OW            1 RES     
    8635 HW1          5.9340    25.7290   -52.6520 HW1           1 RES     
    8636 HW2          6.9680    24.8680   -53.5780 HW2           1 RES     
    8637 OW          38.5280    26.0670   -41.8880 OW            1 RES     
    8638 HW1         39.1880    26.7870   -41.6760 HW1           1 RES     
    8639 HW2         38.4130    25.4740   -41.0910 HW2           1 RES     
    8640 OW          16.5110    27.2270   -48.9200 OW            1 RES     
    8641 HW1         16.3410    26.2750   -48.6690 HW1           1 RES     
    8642 HW2         17.3060    27.2760   -49.5260 HW2           1 RES     
    8643 OW           8.8860    22.1200   -35.9900 OW            1 RES     
    8644 HW1          9.7210    22.2910   -35.4680 HW1           1 RES     
    8645 HW2          8.4140    21.3230   -35.6130 HW2           1 RES     
    8646 OW          22.2530     3.4710   -47.1160 OW            1 RES     
    8647 HW1         21.7240     3.3710   -46.2750 HW1           1 RES     
    8648 HW2         21.6600     3.3040   -47.9050 HW2           1 RES     
    8649 OW          -0.1550     6.3080   -54.0520 OW            1 RES     
    8650 HW1         -1.0040     5.8050   -54.2080 HW1           1 RES     
    8651 HW2         -0.3670     7.2180   -53.6950 HW2           1 RES     
    8652 OW          12.7130    34.8610   -44.0780 OW            1 RES     
    8653 HW1         12.9800    35.7650   -43.7440 HW1           1 RES     
    8654 HW2         13.5310    34.3410   -44.3230 HW2           1 RES     
    8655 OW           2.0680    19.6880   -43.2540 OW            1 RES     
    8656 HW1          2.0180    20.6770   -43.3920 HW1           1 RES     
    8657 HW2          3.0050    19.3760   -43.4130 HW2           1 RES     
    8658 OW           0.4960    13.4690   -37.6250 OW            1 RES     
    8659 HW1          0.4070    14.2760   -38.2080 HW1           1 RES     
    8660 HW2          0.9550    13.7220   -36.7730 HW2           1 RES     
    8661 OW          13.4580    35.5590   -41.4690 OW            1 RES     
    8662 HW1         13.7790    34.6170   -41.3750 HW1           1 RES     
    8663 HW2         12.4680    35.5630   -41.6140 HW2           1 RES     
    8664 OW          12.1500    16.6130   -36.0640 OW            1 RES     
    8665 HW1         11.9820    17.3520   -36.7160 HW1           1 RES     
    8666 HW2         13.0820    16.2690   -36.1820 HW2           1 RES     
    8667 OW           9.2710    10.7340   -35.9550 OW            1 RES     
    8668 HW1          8.3320    10.4760   -36.1770 HW1           1 RES     
    8669 HW2          9.8290     9.9100   -35.8520 HW2           1 RES     
    8670 OW          20.1260    -1.6140   -34.5950 OW            1 RES     
    8671 HW1         19.8730    -2.0480   -35.4590 HW1           1 RES     
    8672 HW2         19.8740    -0.6460   -34.6210 HW2           1 RES     
    8673 OW           7.2570     1.2100   -51.5970 OW            1 RES     
    8674 HW1          7.2150     2.1830   -51.8210 HW1           1 RES     
    8675 HW2          6.7040     0.6920   -52.2500 HW2           1 RES     
    8676 OW          11.8640     4.1750   -33.5570 OW            1 RES     
    8677 HW1         12.7650     4.5590   -33.3560 HW1           1 RES     
    8678 HW2         11.8480     3.2090   -33.2980 HW2           1 RES     
    8679 OW          24.2870     9.5970   -37.1460 OW            1 RES     
    8680 HW1         23.4160     9.1420   -37.3280 HW1           1 RES     
    8681 HW2         24.2270    10.5560   -37.4230 HW2           1 RES     
    8682 OW          13.9440     3.1720   -38.0810 OW            1 RES     
    8683 HW1         14.2190     2.4960   -38.7630 HW1           1 RES     
    8684 HW2         14.5290     3.9800   -38.1560 HW2           1 RES     
    8685 OW           7.8080    14.9250   -33.9520 OW            1 RES     
    8686 HW1          8.1190    13.9870   -33.8040 HW1           1 RES     
    8687 HW2          8.5520    15.5600   -33.7420 HW2           1 RES     
    8688 OW          21.8360    18.4920   -30.8590 OW            1 RES     
    8689 HW1         21.1180    19.1870   -30.8450 HW1           1 RES     
    8690 HW2         22.6780    18.8890   -31.2240 HW2           1 RES     
    8691 OW          12.8490    31.6980   -34.5990 OW            1 RES     
    8692 HW1         12.2330    31.0550   -34.1470 HW1           1 RES     
    8693 HW2         12.3360    32.5060   -34.8890 HW2           1 RES     
    8694 OW          12.6190    16.1400   -42.7700 OW            1 RES     
    8695 HW1         12.8940    17.0810   -42.5760 HW1           1 RES     
    8696 HW2         11.6280    16.0990   -42.8920 HW2           1 RES     
    8697 OW          14.9500    18.6930   -47.9610 OW            1 RES     
    8698 HW1         15.0730    17.8920   -47.3760 HW1           1 RES     
    8699 HW2         14.4470    18.4320   -48.7850 HW2           1 RES     
    8700 OW          25.7070    31.4590   -38.7820 OW            1 RES     
    8701 HW1         25.2760    30.9070   -39.4940 HW1           1 RES     
    8702 HW2         25.9200    32.3660   -39.1460 HW2           1 RES     
    8703 OW           0.7020    16.3580   -42.4790 OW            1 RES     
    8704 HW1          0.6580    17.3540   -42.4200 HW1           1 RES     
    8705 HW2          0.9050    15.9790   -41.5750 HW2           1 RES     
    8706 OW           8.7900    34.1640   -31.4780 OW            1 RES     
    8707 HW1          7.9110    34.6390   -31.5080 HW1           1 RES     
    8708 HW2          9.5310    34.8350   -31.4490 HW2           1 RES     
    8709 OW          33.7300    29.3520   -40.7000 OW            1 RES     
    8710 HW1         33.0710    28.7740   -41.1800 HW1           1 RES     
    8711 HW2         34.2760    28.7900   -40.0780 HW2           1 RES     
    8712 OW          35.4040    24.6660   -39.6280 OW            1 RES     
    8713 HW1         36.1760    24.2090   -40.0690 HW1           1 RES     
    8714 HW2         35.5120    24.6210   -38.6350 HW2           1 RES     
    8715 OW           9.1840    17.3750   -37.9890 OW            1 RES     
    8716 HW1          9.8720    16.7090   -37.7010 HW1           1 RES     
    8717 HW2          8.2830    16.9400   -38.0030 HW2           1 RES     
    8718 OW          15.2680    21.4880   -38.2530 OW            1 RES     
    8719 HW1         16.1320    21.6840   -38.7140 HW1           1 RES     
    8720 HW2         15.3950    21.5540   -37.2630 HW2           1 RES     
    8721 OW          32.1820     8.0310   -38.3610 OW            1 RES     
    8722 HW1         31.2830     7.8820   -37.9520 HW1           1 RES     
    8723 HW2         32.2920     9.0000   -38.5840 HW2           1 RES     
    8724 OW          25.9310    32.3270   -48.2200 OW            1 RES     
    8725 HW1         24.9350    32.2860   -48.1430 HW1           1 RES     
    8726 HW2         26.1860    33.0350   -48.8790 HW2           1 RES     
    8727 OW          16.1350    19.3540   -37.4590 OW            1 RES     
    8728 HW1         16.9640    19.9120   -37.4840 HW1           1 RES     
    8729 HW2         16.2110    18.6760   -36.7280 HW2           1 RES     
    8730 OW          10.4460    13.1900   -54.1820 OW            1 RES     
    8731 HW1         10.7610    12.2510   -54.3220 HW1           1 RES     
    8732 HW2          9.4770    13.2560   -54.4210 HW2           1 RES     
    8733 OW          13.8460    21.4370   -40.3350 OW            1 RES     
    8734 HW1         13.1750    21.8020   -40.9800 HW1           1 RES     
    8735 HW2         14.1130    20.5150   -40.6170 HW2           1 RES     
    8736 OW          30.6160    31.0460   -48.6560 OW            1 RES     
    8737 HW1         30.0530    30.6860   -49.4000 HW1           1 RES     
    8738 HW2         31.4280    31.4890   -49.0360 HW2           1 RES     
    8739 OW          20.2490    12.0570   -39.7490 OW            1 RES     
    8740 HW1         20.5310    11.1740   -40.1240 HW1           1 RES     
    8741 HW2         19.3140    11.9890   -39.4010 HW2           1 RES     
    8742 OW           0.7910    19.4310   -35.8270 OW            1 RES     
    8743 HW1          1.3740    18.9950   -36.5120 HW1           1 RES     
    8744 HW2          1.3450    20.0330   -35.2510 HW2           1 RES     
    8745 OW          24.4070     0.8280   -52.1130 OW            1 RES     
    8746 HW1         24.8190     0.1830   -51.4700 HW1           1 RES     
    8747 HW2         23.4350     0.9340   -51.9030 HW2           1 RES     
    8748 OW          30.3230     8.3790   -50.1660 OW            1 RES     
    8749 HW1         31.1170     8.9420   -50.3910 HW1           1 RES     
    8750 HW2         30.1640     8.4070   -49.1790 HW2           1 RES     
    8751 OW           1.0970    34.9530   -50.3930 OW            1 RES     
    8752 HW1          0.6450    35.8080   -50.6460 HW1           1 RES     
    8753 HW2          0.4110    34.2360   -50.2740 HW2           1 RES     
    8754 OW          22.0790    36.5520   -54.4200 OW            1 RES     
    8755 HW1         21.9080    37.4200   -53.9550 HW1           1 RES     
    8756 HW2         21.3680    35.8940   -54.1700 HW2           1 RES     
    8757 OW          32.9940    36.6320   -51.0350 OW            1 RES     
    8758 HW1         33.3560    37.0230   -51.8800 HW1           1 RES     
    8759 HW2         32.7530    37.3690   -50.4020 HW2           1 RES     
    8760 OW          30.9830    22.9550   -50.6560 OW            1 RES     
    8761 HW1         30.7910    22.9180   -51.6360 HW1           1 RES     
    8762 HW2         31.2680    22.0500   -50.3380 HW2           1 RES     
    8763 OW          17.7300    18.8320   -39.2420 OW            1 RES     
    8764 HW1         18.0230    17.8850   -39.3660 HW1           1 RES     
    8765 HW2         18.5050    19.4450   -39.4000 HW2           1 RES     
    8766 OW           3.3050     0.6950   -32.0340 OW            1 RES     
    8767 HW1          4.3030     0.7480   -32.0570 HW1           1 RES     
    8768 HW2          3.0210     0.0660   -31.3110 HW2           1 RES     
    8769 OW          -0.2970     9.3970   -53.9850 OW            1 RES     
    8770 HW1         -0.4260     9.4630   -52.9970 HW1           1 RES     
    8771 HW2         -0.6220    10.2370   -54.4210 HW2           1 RES     
    8772 OW          31.1920    20.1710   -51.4800 OW            1 RES     
    8773 HW1         30.9630    19.3970   -50.8920 HW1           1 RES     
    8774 HW2         30.6110    20.1560   -52.2940 HW2           1 RES     
    8775 OW          16.9580    26.0450   -44.2430 OW            1 RES     
    8776 HW1         16.8180    25.4470   -43.4540 HW1           1 RES     
    8777 HW2         17.8930    26.3990   -44.2320 HW2           1 RES     
    8778 OW          16.5420     2.6520   -32.2020 OW            1 RES     
    8779 HW1         15.6580     2.3080   -31.8880 HW1           1 RES     
    8780 HW2         16.5080     3.6500   -32.2690 HW2           1 RES     
    8781 OW          13.6640     8.3490   -39.0710 OW            1 RES     
    8782 HW1         13.2930     9.1090   -38.5390 HW1           1 RES     
    8783 HW2         13.8800     8.6630   -39.9960 HW2           1 RES     
    8784 OW           9.6860     8.4660   -44.9770 OW            1 RES     
    8785 HW1          8.9140     7.9460   -45.3420 HW1           1 RES     
    8786 HW2          9.8860     9.2360   -45.5820 HW2           1 RES     
    8787 OW           2.7430     7.7850   -35.2890 OW            1 RES     
    8788 HW1          2.6220     8.3840   -36.0790 HW1           1 RES     
    8789 HW2          3.0870     6.8960   -35.5930 HW2           1 RES     
    8790 OW           7.0870    30.5720   -53.6120 OW            1 RES     
    8791 HW1          6.5290    29.7430   -53.5850 HW1           1 RES     
    8792 HW2          6.4930    31.3760   -53.5670 HW2           1 RES     
    8793 OW           6.2830    29.8430   -50.3630 OW            1 RES     
    8794 HW1          6.3640    30.8370   -50.4360 HW1           1 RES     
    8795 HW2          5.3360    29.6000   -50.1520 HW2           1 RES     
    8796 OW          35.7740    38.3370   -45.4530 OW            1 RES     
    8797 HW1         36.1060    37.3950   -45.4280 HW1           1 RES     
    8798 HW2         34.7960    38.3410   -45.6620 HW2           1 RES     
    8799 OW          18.3150    28.3780   -37.5300 OW            1 RES     
    8800 HW1         19.0750    27.9920   -37.0080 HW1           1 RES     
    8801 HW2         18.6590    29.0890   -38.1440 HW2           1 RES     
    8802 OW          32.1230    30.2320   -30.9840 OW            1 RES     
    8803 HW1         31.6620    29.9010   -31.8070 HW1           1 RES     
    8804 HW2         32.9710    29.7210   -30.8480 HW2           1 RES     
    8805 OW          15.0320    12.1510   -44.0640 OW            1 RES     
    8806 HW1         14.3440    11.5810   -44.5120 HW1           1 RES     
    8807 HW2         14.6230    12.6070   -43.2730 HW2           1 RES     
    8808 OW           5.7380     4.8830   -41.3480 OW            1 RES     
    8809 HW1          6.1320     4.1810   -41.9390 HW1           1 RES     
    8810 HW2          4.8740     5.2010   -41.7370 HW2           1 RES     
    8811 OW          28.5790    22.5900   -46.5020 OW            1 RES     
    8812 HW1         28.5520    22.6060   -45.5030 HW1           1 RES     
    8813 HW2         29.4830    22.2920   -46.8070 HW2           1 RES     
    8814 OW           2.1780    18.4000   -32.9140 OW            1 RES     
    8815 HW1          1.3520    18.6490   -32.4090 HW1           1 RES     
    8816 HW2          2.1300    17.4370   -33.1790 HW2           1 RES     
    8817 OW           0.9850    37.6440   -38.9530 OW            1 RES     
    8818 HW1          0.1170    38.0680   -38.6970 HW1           1 RES     
    8819 HW2          1.0920    36.7790   -38.4610 HW2           1 RES     
    8820 OW          24.0560    25.2780   -43.1560 OW            1 RES     
    8821 HW1         24.9800    25.1510   -43.5150 HW1           1 RES     
    8822 HW2         23.9440    26.2230   -42.8480 HW2           1 RES     
    8823 OW          31.4960    28.8120   -51.2660 OW            1 RES     
    8824 HW1         31.1960    28.4850   -52.1610 HW1           1 RES     
    8825 HW2         31.7670    29.7720   -51.3350 HW2           1 RES     
    8826 OW          37.7730    16.9690   -42.3750 OW            1 RES     
    8827 HW1         37.0090    17.5880   -42.5560 HW1           1 RES     
    8828 HW2         38.4190    17.4100   -41.7510 HW2           1 RES     
    8829 OW           5.9340     7.9040   -42.0470 OW            1 RES     
    8830 HW1          6.4580     7.9850   -41.2000 HW1           1 RES     
    8831 HW2          5.0740     7.4270   -41.8620 HW2           1 RES     
    8832 OW          27.1810    21.1960   -37.8450 OW            1 RES     
    8833 HW1         27.2760    21.0990   -36.8540 HW1           1 RES     
    8834 HW2         26.3960    20.6620   -38.1590 HW2           1 RES     
    8835 OW           4.0300     2.7390   -37.9130 OW            1 RES     
    8836 HW1          4.9360     2.8360   -38.3240 HW1           1 RES     
    8837 HW2          3.6460     3.6460   -37.7360 HW2           1 RES     
    8838 OW          19.7700     1.4870   -33.5910 OW            1 RES     
    8839 HW1         19.5540     2.0560   -32.7980 HW1           1 RES     
    8840 HW2         20.7630     1.4140   -33.6880 HW2           1 RES     
    8841 OW          19.6780    35.5010   -32.3440 OW            1 RES     
    8842 HW1         18.9530    35.2560   -31.7020 HW1           1 RES     
    8843 HW2         19.7220    34.8190   -33.0750 HW2           1 RES     
    8844 OW          34.4840    23.2960   -48.7510 OW            1 RES     
    8845 HW1         33.9840    22.7040   -49.3820 HW1           1 RES     
    8846 HW2         35.1950    23.7920   -49.2500 HW2           1 RES     
    8847 OW          30.5850     4.8490   -33.8370 OW            1 RES     
    8848 HW1         31.3010     4.6350   -34.5010 HW1           1 RES     
    8849 HW2         30.0160     4.0410   -33.6870 HW2           1 RES     
    8850 OW          24.0780    20.3760   -32.0400 OW            1 RES     
    8851 HW1         24.8300    21.0230   -32.1690 HW1           1 RES     
    8852 HW2         23.4350    20.4560   -32.8020 HW2           1 RES     
    8853 OW           9.9720     2.3000   -39.0690 OW            1 RES     
    8854 HW1          9.3870     2.8600   -38.4840 HW1           1 RES     
    8855 HW2          9.4170     1.6100   -39.5350 HW2           1 RES     
    8856 OW          15.0310    13.9820   -38.6910 OW            1 RES     
    8857 HW1         14.4410    14.6670   -38.2630 HW1           1 RES     
    8858 HW2         14.5320    13.1200   -38.7770 HW2           1 RES     
    8859 OW          19.1100    15.4250   -50.0630 OW            1 RES     
    8860 HW1         19.2030    15.0010   -49.1620 HW1           1 RES     
    8861 HW2         18.5760    14.8260   -50.6600 HW2           1 RES     
    8862 OW          12.6870    25.4780   -52.0650 OW            1 RES     
    8863 HW1         11.8380    25.8930   -52.3910 HW1           1 RES     
    8864 HW2         12.4910    24.5770   -51.6790 HW2           1 RES     
    8865 OW           4.7170    10.1580   -42.7960 OW            1 RES     
    8866 HW1          4.7610     9.2900   -43.2900 HW1           1 RES     
    8867 HW2          5.0870    10.0370   -41.8750 HW2           1 RES     
    8868 OW          30.1590    37.8940   -53.0030 OW            1 RES     
    8869 HW1         29.5070    38.3410   -52.3920 HW1           1 RES     
    8870 HW2         31.0500    38.3410   -52.9260 HW2           1 RES     
    8871 OW          27.8240    37.9170   -38.1070 OW            1 RES     
    8872 HW1         28.4030    37.7100   -37.3190 HW1           1 RES     
    8873 HW2         28.1430    37.4000   -38.9010 HW2           1 RES     
    8874 OW          32.7280    21.4640   -43.1160 OW            1 RES     
    8875 HW1         32.7290    22.4170   -43.4160 HW1           1 RES     
    8876 HW2         33.6320    21.2250   -42.7600 HW2           1 RES     
    8877 OW          36.6430    26.3640   -45.9650 OW            1 RES     
    8878 HW1         37.5510    26.2090   -46.3540 HW1           1 RES     
    8879 HW2         36.3200    25.5250   -45.5260 HW2           1 RES     
    8880 OW          34.9370    22.7820   -44.8700 OW            1 RES     
    8881 HW1         35.7210    23.4000   -44.9200 HW1           1 RES     
    8882 HW2         34.0910    23.3140   -44.8940 HW2           1 RES     
    8883 OW          36.6940    -0.5340   -49.7300 OW            1 RES     
    8884 HW1         37.2540    -1.1270   -50.3070 HW1           1 RES     
    8885 HW2         37.2340    -0.2220   -48.9480 HW2           1 RES     
    8886 OW           6.8920     9.9600   -38.8600 OW            1 RES     
    8887 HW1          7.3960     9.0980   -38.8400 HW1           1 RES     
    8888 HW2          5.9120     9.7720   -38.9390 HW2           1 RES     
    8889 OW          21.4470    23.7180   -52.5390 OW            1 RES     
    8890 HW1         22.2930    23.6660   -52.0080 HW1           1 RES     
    8891 HW2         21.4410    24.5620   -53.0750 HW2           1 RES     
    8892 OW          22.6850    36.7130   -45.4540 OW            1 RES     
    8893 HW1         22.9360    37.4940   -44.8840 HW1           1 RES     
    8894 HW2         21.8420    36.3030   -45.1060 HW2           1 RES     
    8895 OW          13.0100     5.2990   -50.8770 OW            1 RES     
    8896 HW1         12.0560     5.0860   -50.6680 HW1           1 RES     
    8897 HW2         13.4910     4.4610   -51.1360 HW2           1 RES     
    8898 OW          12.3880    31.5440   -43.1250 OW            1 RES     
    8899 HW1         12.5010    30.6790   -42.6380 HW1           1 RES     
    8900 HW2         13.2480    32.0540   -43.1050 HW2           1 RES     
    8901 OW          29.8750    24.7970   -45.5530 OW            1 RES     
    8902 HW1         30.6470    25.2750   -45.9710 HW1           1 RES     
    8903 HW2         29.0720    25.3930   -45.5560 HW2           1 RES     
    8904 OW          14.7290    27.3500   -51.6700 OW            1 RES     
    8905 HW1         15.0070    28.1700   -52.1680 HW1           1 RES     
    8906 HW2         13.7350    27.3460   -51.5610 HW2           1 RES     
    8907 OW           6.9330    38.1720   -41.0050 OW            1 RES     
    8908 HW1          7.2150    37.2190   -40.8950 HW1           1 RES     
    8909 HW2          6.0970    38.2110   -41.5540 HW2           1 RES     
    8910 OW          20.2750     9.1990   -32.5930 OW            1 RES     
    8911 HW1         20.8030     9.3170   -33.4330 HW1           1 RES     
    8912 HW2         19.7240    10.0170   -32.4280 HW2           1 RES     
    8913 OW          34.2020    -0.8600   -37.0040 OW            1 RES     
    8914 HW1         35.0740    -0.4630   -36.7200 HW1           1 RES     
    8915 HW2         34.3600    -1.7700   -37.3890 HW2           1 RES     
    8916 OW          23.5130    20.2210   -38.4780 OW            1 RES     
    8917 HW1         22.9380    21.0310   -38.5840 HW1           1 RES     
    8918 HW2         22.9460    19.3990   -38.5390 HW2           1 RES     
    8919 OW          17.8360     7.3160   -50.1060 OW            1 RES     
    8920 HW1         16.8990     7.6370   -49.9710 HW1           1 RES     
    8921 HW2         17.8610     6.3190   -50.0340 HW2           1 RES     
    8922 OW          -0.0540    -2.0480   -45.9650 OW            1 RES     
    8923 HW1          0.9340    -2.0460   -46.1190 HW1           1 RES     
    8924 HW2         -0.3820    -1.1060   -45.8930 HW2           1 RES     
    8925 OW          25.2650    11.6760   -51.2940 OW            1 RES     
    8926 HW1         26.2560    11.5900   -51.3880 HW1           1 RES     
    8927 HW2         25.0280    12.6300   -51.1110 HW2           1 RES     
    8928 OW          17.4870     9.0710   -33.0310 OW            1 RES     
    8929 HW1         17.6330     9.9740   -33.4340 HW1           1 RES     
    8930 HW2         16.5060     8.8990   -32.9410 HW2           1 RES     
    8931 OW           0.0400    13.3850   -46.1130 OW            1 RES     
    8932 HW1          0.2970    14.3480   -46.1860 HW1           1 RES     
    8933 HW2         -0.9550    13.3110   -46.0300 HW2           1 RES     
    8934 OW          30.1330    19.6550   -44.8260 OW            1 RES     
    8935 HW1         29.9010    18.7810   -45.2510 HW1           1 RES     
    8936 HW2         29.3860    20.3040   -44.9690 HW2           1 RES     
    8937 OW          23.2580     9.3030   -50.8930 OW            1 RES     
    8938 HW1         23.9950     9.9630   -50.7500 HW1           1 RES     
    8939 HW2         22.4010     9.6780   -50.5380 HW2           1 RES     
    8940 OW           5.4420    14.7210   -48.0620 OW            1 RES     
    8941 HW1          5.6340    15.3200   -47.2860 HW1           1 RES     
    8942 HW2          6.2820    14.5690   -48.5830 HW2           1 RES     
    8943 OW          23.3040    34.9450   -44.1800 OW            1 RES     
    8944 HW1         23.9980    34.4970   -44.7430 HW1           1 RES     
    8945 HW2         23.5890    34.9250   -43.2220 HW2           1 RES     
    8946 OW           2.5130     0.4180   -39.4830 OW            1 RES     
    8947 HW1          2.9520    -0.2590   -38.8920 HW1           1 RES     
    8948 HW2          3.1260     1.1980   -39.6090 HW2           1 RES     
    8949 OW          11.1980    31.3440   -47.2580 OW            1 RES     
    8950 HW1         11.0510    30.4540   -46.8280 HW1           1 RES     
    8951 HW2         11.7760    31.2330   -48.0670 HW2           1 RES     
    8952 OW          14.2170    23.5610   -38.9950 OW            1 RES     
    8953 HW1         13.2230    23.6180   -38.9030 HW1           1 RES     
    8954 HW2         14.5780    24.4490   -39.2780 HW2           1 RES     
    8955 OW          30.7960    32.9840   -38.4330 OW            1 RES     
    8956 HW1         30.7780    31.9940   -38.5650 HW1           1 RES     
    8957 HW2         31.7360    33.2820   -38.2640 HW2           1 RES     
    8958 OW          36.6110     4.5090   -37.2330 OW            1 RES     
    8959 HW1         36.7130     3.6680   -36.7040 HW1           1 RES     
    8960 HW2         36.5730     5.2920   -36.6120 HW2           1 RES     
    8961 OW          25.5820    14.4890   -40.2370 OW            1 RES     
    8962 HW1         25.9770    15.2330   -39.7000 HW1           1 RES     
    8963 HW2         26.2340    14.2010   -40.9400 HW2           1 RES     
    8964 OW          -0.9360     2.8400   -44.3700 OW            1 RES     
    8965 HW1         -1.0040     1.8610   -44.5630 HW1           1 RES     
    8966 HW2         -0.2060     3.2390   -44.9260 HW2           1 RES     
    8967 OW          33.3110    36.0990   -44.6420 OW            1 RES     
    8968 HW1         33.9610    36.3270   -45.3660 HW1           1 RES     
    8969 HW2         33.6000    35.2560   -44.1880 HW2           1 RES     
    8970 OW           6.0990    33.9100   -44.3380 OW            1 RES     
    8971 HW1          6.9090    34.3790   -44.6880 HW1           1 RES     
    8972 HW2          5.3770    33.9280   -45.0310 HW2           1 RES     
    8973 OW          35.4390     8.0700   -49.7370 OW            1 RES     
    8974 HW1         35.7030     7.6960   -48.8490 HW1           1 RES     
    8975 HW2         36.1600     8.6780   -50.0710 HW2           1 RES     
    8976 OW          25.9480     7.7390   -41.3590 OW            1 RES     
    8977 HW1         25.5410     7.8430   -42.2660 HW1           1 RES     
    8978 HW2         26.9330     7.9040   -41.4140 HW2           1 RES     
    8979 OW          30.3430    16.0770   -43.1920 OW            1 RES     
    8980 HW1         29.3460    16.1110   -43.1390 HW1           1 RES     
    8981 HW2         30.6250    15.9800   -44.1470 HW2           1 RES     
    8982 OW          21.8400    37.0900   -33.7560 OW            1 RES     
    8983 HW1         21.3780    36.9860   -34.6360 HW1           1 RES     
    8984 HW2         21.6050    36.3210   -33.1620 HW2           1 RES     
    8985 OW          -0.9980    23.0910   -40.1340 OW            1 RES     
    8986 HW1         -0.7880    23.9820   -39.7310 HW1           1 RES     
    8987 HW2         -0.6050    23.0390   -41.0520 HW2           1 RES     
    8988 OW          38.0740    14.6810   -53.1530 OW            1 RES     
    8989 HW1         37.9290    13.6920   -53.1460 HW1           1 RES     
    8990 HW2         37.1900    15.1480   -53.1140 HW2           1 RES     
    8991 OW          36.9520    11.6200   -42.3480 OW            1 RES     
    8992 HW1         36.0190    11.2650   -42.3100 HW1           1 RES     
    8993 HW2         36.9290    12.6200   -42.3670 HW2           1 RES     
    8994 OW          13.9260    26.0440   -37.7500 OW            1 RES     
    8995 HW1         13.3570    26.8650   -37.7760 HW1           1 RES     
    8996 HW2         14.8380    26.2790   -37.4150 HW2           1 RES     
    8997 OW          35.3060    15.2330   -42.1040 OW            1 RES     
    8998 HW1         36.0670    14.6320   -41.8620 HW1           1 RES     
    8999 HW2         35.5080    16.1660   -41.8060 HW2           1 RES     
    9000 OW          35.0750    11.5880   -47.1780 OW            1 RES     
    9001 HW1         34.3490    11.2000   -46.6130 HW1           1 RES     
    9002 HW2         35.7150    12.0940   -46.5990 HW2           1 RES     
    9003 OW          20.3860    26.0850   -38.3830 OW            1 RES     
    9004 HW1         19.7360    26.7690   -38.7130 HW1           1 RES     
    9005 HW2         20.4110    25.3130   -39.0180 HW2           1 RES     
    9006 OW           8.9840    14.1620   -41.2460 OW            1 RES     
    9007 HW1          8.6980    13.2610   -40.9220 HW1           1 RES     
    9008 HW2          9.9430    14.1260   -41.5280 HW2           1 RES     
    9009 OW          22.5310    32.0880   -38.0650 OW            1 RES     
    9010 HW1         23.2150    31.8710   -38.7610 HW1           1 RES     
    9011 HW2         22.5220    31.3690   -37.3690 HW2           1 RES     
    9012 OW           7.3260     1.8480   -33.7550 OW            1 RES     
    9013 HW1          7.8530     0.9990   -33.7510 HW1           1 RES     
    9014 HW2          7.8440     2.5600   -34.2290 HW2           1 RES     
    9015 OW          35.6360     7.3070   -51.7910 OW            1 RES     
    9016 HW1         34.6500     7.1700   -51.7020 HW1           1 RES     
    9017 HW2         36.0880     6.4200   -51.8960 HW2           1 RES     
    9018 OW          13.4150     4.9990   -40.9520 OW            1 RES     
    9019 HW1         13.9280     4.5720   -40.2080 HW1           1 RES     
    9020 HW2         12.9670     4.2900   -41.4970 HW2           1 RES     
    9021 OW           6.6110    27.5750   -34.4350 OW            1 RES     
    9022 HW1          5.6970    27.9540   -34.2970 HW1           1 RES     
    9023 HW2          6.9620    27.2230   -33.5670 HW2           1 RES     
    9024 OW          31.4290    19.7410   -47.2710 OW            1 RES     
    9025 HW1         32.0650    20.2000   -46.6510 HW1           1 RES     
    9026 HW2         31.0350    20.4110   -47.9000 HW2           1 RES     
    9027 OW          -0.7010    24.0720   -48.6780 OW            1 RES     
    9028 HW1         -1.0020    24.6490   -47.9190 HW1           1 RES     
    9029 HW2          0.1900    24.3880   -49.0050 HW2           1 RES     
    9030 OW          16.2490    -1.1040   -39.8560 OW            1 RES     
    9031 HW1         16.1500    -2.0480   -39.5410 HW1           1 RES     
    9032 HW2         16.9830    -1.0540   -40.5340 HW2           1 RES     
    9033 OW          33.4170     2.1940   -39.9300 OW            1 RES     
    9034 HW1         32.8850     3.0390   -39.9120 HW1           1 RES     
    9035 HW2         33.8210     2.0720   -40.8370 HW2           1 RES     
    9036 OW          31.8100     4.1480   -44.2360 OW            1 RES     
    9037 HW1         32.2330     4.8190   -44.8440 HW1           1 RES     
    9038 HW2         30.8620     3.9940   -44.5180 HW2           1 RES     
    9039 OW          39.0440    16.9400   -54.0710 OW            1 RES     
    9040 HW1         39.1860    16.5790   -53.1500 HW1           1 RES     
    9041 HW2         38.1550    16.6370   -54.4150 HW2           1 RES     
    9042 OW           7.5880    11.0020   -43.7930 OW            1 RES     
    9043 HW1          7.2030    11.5680   -44.5210 HW1           1 RES     
    9044 HW2          8.4660    10.6270   -44.0920 HW2           1 RES     
    9045 OW          11.5140    -0.8230   -48.1020 OW            1 RES     
    9046 HW1         11.2440    -1.7680   -48.2830 HW1           1 RES     
    9047 HW2         10.7100    -0.2310   -48.1560 HW2           1 RES     
    9048 OW          18.1130    33.2930   -43.6220 OW            1 RES     
    9049 HW1         18.7030    34.1000   -43.6470 HW1           1 RES     
    9050 HW2         18.6110    32.5280   -43.2140 HW2           1 RES     
    9051 OW           1.3780    32.0690   -36.4390 OW            1 RES     
    9052 HW1          0.6670    32.6940   -36.7590 HW1           1 RES     
    9053 HW2          2.0630    31.9470   -37.1580 HW2           1 RES     
    9054 OW          35.9430     7.6730   -44.1970 OW            1 RES     
    9055 HW1         35.4010     7.2030   -44.8920 HW1           1 RES     
    9056 HW2         35.4190     8.4420   -43.8290 HW2           1 RES     
    9057 OW          12.4710    35.7750   -35.1620 OW            1 RES     
    9058 HW1         11.6420    35.7910   -35.7210 HW1           1 RES     
    9059 HW2         12.3940    35.0540   -34.4730 HW2           1 RES     
    9060 OW          28.6280     6.0090   -51.9380 OW            1 RES     
    9061 HW1         29.5610     6.2310   -52.2190 HW1           1 RES     
    9062 HW2         28.6520     5.3160   -51.2180 HW2           1 RES     
    9063 OW          22.6210    17.8150   -52.3660 OW            1 RES     
    9064 HW1         23.5770    17.8560   -52.6560 HW1           1 RES     
    9065 HW2         22.1990    18.7150   -52.4800 HW2           1 RES     
    9066 OW          29.3540    17.4410   -39.7370 OW            1 RES     
    9067 HW1         29.6520    16.8930   -38.9570 HW1           1 RES     
    9068 HW2         29.7680    17.0830   -40.5740 HW2           1 RES     
    9069 OW          31.8650    11.9730   -46.4610 OW            1 RES     
    9070 HW1         30.8800    12.0000   -46.6240 HW1           1 RES     
    9071 HW2         32.1670    11.0220   -46.3900 HW2           1 RES     
    9072 OW          34.3310    13.0940   -50.5180 OW            1 RES     
    9073 HW1         34.3240    12.4630   -49.7430 HW1           1 RES     
    9074 HW2         34.1570    14.0240   -50.1940 HW2           1 RES     
    9075 OW          11.7040    34.1950   -47.8170 OW            1 RES     
    9076 HW1         11.9320    33.4180   -47.2300 HW1           1 RES     
    9077 HW2         10.7100    34.2870   -47.8770 HW2           1 RES     
    9078 OW          32.5260    30.8620   -43.1940 OW            1 RES     
    9079 HW1         33.0770    31.6520   -43.4610 HW1           1 RES     
    9080 HW2         32.6130    30.7120   -42.2090 HW2           1 RES     
    9081 OW          25.4180    23.7810   -33.4470 OW            1 RES     
    9082 HW1         26.2240    23.3360   -33.8370 HW1           1 RES     
    9083 HW2         25.6720    24.6820   -33.0940 HW2           1 RES     
    9084 OW          34.2380    13.3690   -37.5230 OW            1 RES     
    9085 HW1         34.4120    14.3530   -37.5130 HW1           1 RES     
    9086 HW2         34.8770    12.9230   -38.1490 HW2           1 RES     
    9087 OW          32.0480    15.3480   -45.7380 OW            1 RES     
    9088 HW1         32.5400    14.7880   -45.0730 HW1           1 RES     
    9089 HW2         32.7040    15.8480   -46.3040 HW2           1 RES     
    9090 OW          19.0350    -0.2740   -37.5010 OW            1 RES     
    9091 HW1         19.6850    -0.8640   -37.9800 HW1           1 RES     
    9092 HW2         18.6180    -0.7810   -36.7470 HW2           1 RES     
    9093 OW          10.2790    15.2020   -49.8380 OW            1 RES     
    9094 HW1         11.1470    14.8360   -49.5040 HW1           1 RES     
    9095 HW2          9.5320    14.5970   -49.5590 HW2           1 RES     
    9096 OW          26.9860     1.1470   -48.2040 OW            1 RES     
    9097 HW1         27.0210     0.1490   -48.2180 HW1           1 RES     
    9098 HW2         26.0330     1.4480   -48.1760 HW2           1 RES     
    9099 OW          33.7430    34.3870   -39.7540 OW            1 RES     
    9100 HW1         32.7570    34.3540   -39.9180 HW1           1 RES     
    9101 HW2         34.0510    33.5080   -39.3910 HW2           1 RES     
    9102 OW          25.3870     0.0270   -37.7940 OW            1 RES     
    9103 HW1         26.3040     0.4120   -37.7000 HW1           1 RES     
    9104 HW2         24.7190     0.7670   -37.8650 HW2           1 RES     
    9105 OW          32.1750    26.4140   -53.2610 OW            1 RES     
    9106 HW1         32.4650    27.3290   -53.5370 HW1           1 RES     
    9107 HW2         31.5600    26.0360   -53.9530 HW2           1 RES     
    9108 OW          14.7120    28.6460   -47.0300 OW            1 RES     
    9109 HW1         15.2690    27.8330   -47.1950 HW1           1 RES     
    9110 HW2         13.7630    28.3730   -46.8700 HW2           1 RES     
    9111 OW          32.5150     2.4030   -34.8210 OW            1 RES     
    9112 HW1         33.2790     2.2260   -34.2020 HW1           1 RES     
    9113 HW2         31.6570     2.1450   -34.3760 HW2           1 RES     
    9114 OW          34.6210    19.0660   -34.8820 OW            1 RES     
    9115 HW1         33.8200    19.6480   -34.7470 HW1           1 RES     
    9116 HW2         34.3380    18.1980   -35.2900 HW2           1 RES     
    9117 OW          10.2080     0.2600   -34.4420 OW            1 RES     
    9118 HW1          9.9550     0.4050   -33.4860 HW1           1 RES     
    9119 HW2         10.1820     1.1320   -34.9310 HW2           1 RES     
    9120 OW          26.5820     9.3710   -53.0090 OW            1 RES     
    9121 HW1         27.4790     9.7690   -53.2000 HW1           1 RES     
    9122 HW2         25.8960    10.0980   -52.9640 HW2           1 RES     
    9123 OW          19.6120    14.5490   -33.7690 OW            1 RES     
    9124 HW1         18.8240    15.0760   -33.4540 HW1           1 RES     
    9125 HW2         20.3770    15.1670   -33.9500 HW2           1 RES     
    9126 OW           1.7370     1.2300   -37.4290 OW            1 RES     
    9127 HW1          2.0120     2.1730   -37.2450 HW1           1 RES     
    9128 HW2          2.0170     0.6460   -36.6660 HW2           1 RES     
    9129 OW           5.9320    -0.1510   -36.8610 OW            1 RES     
    9130 HW1          6.9140     0.0260   -36.7980 HW1           1 RES     
    9131 HW2          5.7720    -1.1380   -36.8820 HW2           1 RES     
    9132 OW          24.7200     1.4010   -35.6460 OW            1 RES     
    9133 HW1         25.7050     1.4860   -35.7900 HW1           1 RES     
    9134 HW2         24.3350     2.2970   -35.4240 HW2           1 RES     
    9135 OW          10.7270     5.6790   -35.6410 OW            1 RES     
    9136 HW1         11.7060     5.5970   -35.8270 HW1           1 RES     
    9137 HW2         10.3570     6.4620   -36.1420 HW2           1 RES     
    9138 OW          30.9590    -1.7040   -50.6390 OW            1 RES     
    9139 HW1         31.1530    -0.7330   -50.7760 HW1           1 RES     
    9140 HW2         31.4030    -2.0180   -49.7990 HW2           1 RES     
    9141 OW          29.4940    28.7840   -50.3540 OW            1 RES     
    9142 HW1         28.5630    29.1300   -50.2370 HW1           1 RES     
    9143 HW2         29.4780    27.7840   -50.3700 HW2           1 RES     
    9144 OW           5.4340     0.3540   -50.1360 OW            1 RES     
    9145 HW1          4.7090     0.0790   -50.7660 HW1           1 RES     
    9146 HW2          5.5650     1.3440   -50.1890 HW2           1 RES     
    9147 OW           2.9690    14.2680   -32.7390 OW            1 RES     
    9148 HW1          3.7430    13.9490   -33.2850 HW1           1 RES     
    9149 HW2          2.3500    13.5030   -32.5590 HW2           1 RES     
    9150 OW          14.9720    24.4280   -54.1330 OW            1 RES     
    9151 HW1         14.0340    24.6200   -54.4210 HW1           1 RES     
    9152 HW2         15.0810    23.4450   -53.9860 HW2           1 RES     
    9153 OW          31.7010    -0.8030   -42.9090 OW            1 RES     
    9154 HW1         32.2530    -0.0610   -43.2870 HW1           1 RES     
    9155 HW2         31.5750    -0.6590   -41.9270 HW2           1 RES     
    9156 OW          11.4180    23.8120   -36.2790 OW            1 RES     
    9157 HW1         11.7520    23.2800   -35.5020 HW1           1 RES     
    9158 HW2         11.2970    23.2100   -37.0690 HW2           1 RES     
    9159 OW          11.9990    23.7960   -47.1550 OW            1 RES     
    9160 HW1         12.3060    24.7040   -47.4380 HW1           1 RES     
    9161 HW2         12.2970    23.6200   -46.2170 HW2           1 RES     
    9162 OW           0.2060    17.4010   -46.7960 OW            1 RES     
    9163 HW1         -0.2260    16.5050   -46.7030 HW1           1 RES     
    9164 HW2         -0.1590    17.8660   -47.6030 HW2           1 RES     
    9165 OW           5.9110    22.1400   -47.8160 OW            1 RES     
    9166 HW1          4.9870    22.5020   -47.6960 HW1           1 RES     
    9167 HW2          6.5710    22.8900   -47.7800 HW2           1 RES     
    9168 OW           7.3460    27.5460   -49.7870 OW            1 RES     
    9169 HW1          6.3580    27.6920   -49.7540 HW1           1 RES     
    9170 HW2          7.5370    26.5640   -49.8120 HW2           1 RES     
    9171 OW           9.7500     7.3830   -51.9530 OW            1 RES     
    9172 HW1          9.0190     7.9900   -52.2610 HW1           1 RES     
    9173 HW2         10.4630     7.3370   -52.6540 HW2           1 RES     
    9174 OW          -1.0050    33.9310   -51.9300 OW            1 RES     
    9175 HW1         -0.1570    33.6340   -52.3700 HW1           1 RES     
    9176 HW2         -0.9950    34.9250   -51.8230 HW2           1 RES     
    9177 OW          38.3430    12.9640   -35.7680 OW            1 RES     
    9178 HW1         37.4470    13.2720   -36.0850 HW1           1 RES     
    9179 HW2         38.6270    12.1630   -36.2950 HW2           1 RES     
    9180 OW          14.4180     5.1840   -45.5660 OW            1 RES     
    9181 HW1         15.0540     5.1490   -46.3360 HW1           1 RES     
    9182 HW2         13.5650     4.7260   -45.8160 HW2           1 RES     
    9183 OW          38.8160    15.8790   -37.3110 OW            1 RES     
    9184 HW1         38.4100    16.2490   -38.1460 HW1           1 RES     
    9185 HW2         38.3210    15.0560   -37.0340 HW2           1 RES     
    9186 OW           7.6090     0.7350   -31.5800 OW            1 RES     
    9187 HW1          8.0080     0.1850   -30.8480 HW1           1 RES     
    9188 HW2          6.6130     0.6450   -31.5610 HW2           1 RES     
    9189 OW          15.2330    31.8690   -54.4210 OW            1 RES     
    9190 HW1         14.4890    31.7580   -53.7640 HW1           1 RES     
    9191 HW2         16.0880    32.0440   -53.9310 HW2           1 RES     
    9192 OW           1.9390    11.5260   -54.2760 OW            1 RES     
    9193 HW1          2.1030    12.0620   -53.4480 HW1           1 RES     
    9194 HW2          2.2520    10.5870   -54.1330 HW2           1 RES     
    9195 OW          30.1380    12.3730   -31.5520 OW            1 RES     
    9196 HW1         29.1480    12.4370   -31.4330 HW1           1 RES     
    9197 HW2         30.5950    12.9140   -30.8450 HW2           1 RES     
    9198 OW          38.5420    24.2780   -45.9390 OW            1 RES     
    9199 HW1         39.1830    23.7730   -46.5150 HW1           1 RES     
    9200 HW2         37.6500    23.8250   -45.9530 HW2           1 RES     
    9201 OW          36.7300    18.9200   -34.1220 OW            1 RES     
    9202 HW1         36.4710    17.9720   -34.3040 HW1           1 RES     
    9203 HW2         36.1950    19.2710   -33.3540 HW2           1 RES     
    9204 OW          20.9450    18.1750   -47.0300 OW            1 RES     
    9205 HW1         19.9540    18.0520   -46.9880 HW1           1 RES     
    9206 HW2         21.1570    19.1420   -47.1680 HW2           1 RES     
    9207 OW          12.3710    20.6100   -33.6440 OW            1 RES     
    9208 HW1         12.5680    21.5840   -33.5360 HW1           1 RES     
    9209 HW2         13.2000    20.0800   -33.4640 HW2           1 RES     
    9210 OW           3.3760    30.4900   -41.6360 OW            1 RES     
    9211 HW1          3.4300    31.3940   -42.0590 HW1           1 RES     
    9212 HW2          3.1250    30.5870   -40.6720 HW2           1 RES     
    9213 OW          18.7490    31.5410   -46.6630 OW            1 RES     
    9214 HW1         19.0830    30.6680   -47.0170 HW1           1 RES     
    9215 HW2         17.9250    31.8100   -47.1620 HW2           1 RES     
    9216 OW          33.9060     7.5550   -31.8570 OW            1 RES     
    9217 HW1         34.4430     8.1310   -31.2400 HW1           1 RES     
    9218 HW2         33.1950     8.1060   -32.2930 HW2           1 RES     
    9219 OW          23.3070    21.7850   -54.4210 OW            1 RES     
    9220 HW1         24.1210    21.2580   -54.1790 HW1           1 RES     
    9221 HW2         22.6900    21.8260   -53.6340 HW2           1 RES     
    9222 OW           3.8590     5.5860   -45.7100 OW            1 RES     
    9223 HW1          3.7880     6.5000   -46.1090 HW1           1 RES     
    9224 HW2          3.5240     5.6060   -44.7680 HW2           1 RES     
    9225 OW           1.8280    30.5140   -46.7690 OW            1 RES     
    9226 HW1          2.7350    30.0960   -46.8110 HW1           1 RES     
    9227 HW2          1.9190    31.5100   -46.7570 HW2           1 RES     
    9228 OW           5.7090    28.6530   -47.8800 OW            1 RES     
    9229 HW1          6.6190    29.0660   -47.8580 HW1           1 RES     
    9230 HW2          5.7660    27.7030   -47.5740 HW2           1 RES     
    9231 OW          24.6320    14.6680   -33.4290 OW            1 RES     
    9232 HW1         24.1750    14.0600   -32.7810 HW1           1 RES     
    9233 HW2         24.6760    14.2280   -34.3260 HW2           1 RES     
    9234 OW           8.4890    14.4210   -39.0640 OW            1 RES     
    9235 HW1          8.5200    14.4690   -38.0660 HW1           1 RES     
    9236 HW2          7.5370    14.3590   -39.3660 HW2           1 RES     
    9237 OW          31.1400     1.2070   -48.5250 OW            1 RES     
    9238 HW1         31.9030     0.5970   -48.7330 HW1           1 RES     
    9239 HW2         30.2830     0.7810   -48.8170 HW2           1 RES     
    9240 OW          27.2760     7.3670   -32.8010 OW            1 RES     
    9241 HW1         26.2860     7.4970   -32.7510 HW1           1 RES     
    9242 HW2         27.7350     8.2380   -32.6270 HW2           1 RES     
    9243 OW          23.8720     2.9710   -45.7060 OW            1 RES     
    9244 HW1         23.8210     3.9350   -45.4490 HW1           1 RES     
    9245 HW2         24.8160     2.7380   -45.9420 HW2           1 RES     
    9246 OW          18.8750     5.3160   -48.2950 OW            1 RES     
    9247 HW1         19.7330     4.8520   -48.0780 HW1           1 RES     
    9248 HW2         18.5460     5.8050   -47.4860 HW2           1 RES     
    9249 OW          12.6720    19.3640   -42.0970 OW            1 RES     
    9250 HW1         12.0390    19.1020   -42.8250 HW1           1 RES     
    9251 HW2         12.1710    19.4600   -41.2370 HW2           1 RES     
    9252 OW          33.4410    28.0910   -50.5260 OW            1 RES     
    9253 HW1         33.1180    27.1540   -50.3990 HW1           1 RES     
    9254 HW2         34.3860    28.0770   -50.8550 HW2           1 RES     
    9255 OW          12.4200    16.5570   -48.6760 OW            1 RES     
    9256 HW1         12.1450    16.8680   -47.7670 HW1           1 RES     
    9257 HW2         12.5660    17.3480   -49.2700 HW2           1 RES     
    9258 OW          24.1530    29.3030   -37.3500 OW            1 RES     
    9259 HW1         24.5220    30.2200   -37.2010 HW1           1 RES     
    9260 HW2         23.3020    29.3660   -37.8700 HW2           1 RES     
    9261 OW          12.0760    18.9350   -38.8110 OW            1 RES     
    9262 HW1         11.3600    19.5850   -38.5600 HW1           1 RES     
    9263 HW2         12.8810    19.4340   -39.1320 HW2           1 RES     
    9264 OW          17.1090    30.4490   -52.7070 OW            1 RES     
    9265 HW1         16.2770    29.9360   -52.4980 HW1           1 RES     
    9266 HW2         17.8470    30.1490   -52.1020 HW2           1 RES     
    9267 OW          35.3360     8.3490   -46.7800 OW            1 RES     
    9268 HW1         35.1510     9.2370   -47.1990 HW1           1 RES     
    9269 HW2         36.3160     8.2620   -46.6010 HW2           1 RES     
    9270 OW          14.9520    26.9470   -42.2370 OW            1 RES     
    9271 HW1         14.1920    27.5420   -42.4980 HW1           1 RES     
    9272 HW2         14.6790    25.9900   -42.3430 HW2           1 RES     
    9273 OW           3.3600    16.4140   -42.9880 OW            1 RES     
    9274 HW1          3.0100    15.8960   -42.2090 HW1           1 RES     
    9275 HW2          2.6100    16.9140   -43.4210 HW2           1 RES     
    9276 OW           1.7410    13.5220   -43.5570 OW            1 RES     
    9277 HW1          1.7580    14.1800   -42.8050 HW1           1 RES     
    9278 HW2          0.9010    13.6430   -44.0870 HW2           1 RES     
    9279 OW          38.1340    33.7880   -33.6500 OW            1 RES     
    9280 HW1         38.7970    34.0690   -32.9570 HW1           1 RES     
    9281 HW2         37.2830    34.2990   -33.5240 HW2           1 RES     
    9282 OW          24.0600    35.7690   -36.6300 OW            1 RES     
    9283 HW1         24.5020    36.5690   -37.0340 HW1           1 RES     
    9284 HW2         23.4780    35.3280   -37.3140 HW2           1 RES     
    9285 OW          13.7800     1.5380   -52.6030 OW            1 RES     
    9286 HW1         14.0830     0.5920   -52.7130 HW1           1 RES     
    9287 HW2         14.5740     2.1460   -52.6030 HW2           1 RES     
    9288 OW          27.1590    34.3960   -39.2500 OW            1 RES     
    9289 HW1         27.6440    35.2620   -39.1350 HW1           1 RES     
    9290 HW2         27.3010    34.0550   -40.1790 HW2           1 RES     
    9291 OW          12.6710    28.9330   -48.8870 OW            1 RES     
    9292 HW1         13.2630    29.7320   -48.7900 HW1           1 RES     
    9293 HW2         11.8570    29.0490   -48.3170 HW2           1 RES     
    9294 OW           7.0450    19.4260   -47.1400 OW            1 RES     
    9295 HW1          6.2950    19.5690   -47.7850 HW1           1 RES     
    9296 HW2          6.6920    19.0050   -46.3050 HW2           1 RES     
    9297 OW          20.1540    27.4170   -40.7740 OW            1 RES     
    9298 HW1         20.1060    26.4270   -40.9000 HW1           1 RES     
    9299 HW2         19.4790    27.8620   -41.3630 HW2           1 RES     
    9300 OW          20.0200    24.8750   -51.3260 OW            1 RES     
    9301 HW1         19.3940    25.4850   -50.8410 HW1           1 RES     
    9302 HW2         19.9600    23.9560   -50.9350 HW2           1 RES     
    9303 OW          12.9260    26.5110   -48.6180 OW            1 RES     
    9304 HW1         12.1860    26.8890   -48.0630 HW1           1 RES     
    9305 HW2         13.7700    26.4890   -48.0820 HW2           1 RES     
    9306 OW          38.5380    13.1220   -47.4980 OW            1 RES     
    9307 HW1         37.8050    12.5980   -47.0660 HW1           1 RES     
    9308 HW2         39.1860    13.4280   -46.8000 HW2           1 RES     
    9309 OW          19.5930    12.3600   -37.1890 OW            1 RES     
    9310 HW1         19.3990    11.3800   -37.1810 HW1           1 RES     
    9311 HW2         18.7340    12.8710   -37.1840 HW2           1 RES     
    9312 OW           0.1690    25.6810   -41.8380 OW            1 RES     
    9313 HW1         -0.6510    25.1120   -41.7870 HW1           1 RES     
    9314 HW2          0.9780    25.0970   -41.9060 HW2           1 RES     
    9315 OW           6.1870    16.6410   -36.6510 OW            1 RES     
    9316 HW1          5.2470    16.8960   -36.8760 HW1           1 RES     
    9317 HW2          6.4080    15.7660   -37.0830 HW2           1 RES     
    9318 OW          21.7490    21.2890   -49.5040 OW            1 RES     
    9319 HW1         22.3460    21.4480   -48.7180 HW1           1 RES     
    9320 HW2         21.5340    20.3150   -49.5690 HW2           1 RES     
    9321 OW          21.6880     3.2420   -31.1830 OW            1 RES     
    9322 HW1         21.4310     2.9740   -32.1110 HW1           1 RES     
    9323 HW2         22.4030     2.6310   -30.8450 HW2           1 RES     
    9324 OW           4.6260    35.4110   -43.0090 OW            1 RES     
    9325 HW1          4.6670    35.7600   -43.9440 HW1           1 RES     
    9326 HW2          3.7010    35.5300   -42.6480 HW2           1 RES     
    9327 OW          29.1100    30.4880   -37.5760 OW            1 RES     
    9328 HW1         28.8380    29.5320   -37.6770 HW1           1 RES     
    9329 HW2         29.9960    30.5360   -37.1150 HW2           1 RES     
    9330 OW          21.4210    15.9880   -52.1170 OW            1 RES     
    9331 HW1         20.4620    15.7140   -52.0500 HW1           1 RES     
    9332 HW2         21.9920    15.1770   -52.2410 HW2           1 RES     
    9333 OW          31.2470    26.5850   -41.7360 OW            1 RES     
    9334 HW1         31.8780    25.8750   -42.0480 HW1           1 RES     
    9335 HW2         31.4460    27.4410   -42.2120 HW2           1 RES     
    9336 OW          10.7380    31.0760   -36.5180 OW            1 RES     
    9337 HW1         10.6610    31.5060   -37.4160 HW1           1 RES     
    9338 HW2         11.7010    30.8960   -36.3140 HW2           1 RES     
    9339 OW          32.9800    20.3820   -49.6040 OW            1 RES     
    9340 HW1         33.8700    20.5970   -50.0040 HW1           1 RES     
    9341 HW2         33.1030    20.0850   -48.6570 HW2           1 RES     
    9342 OW          14.0990    19.6070   -36.6630 OW            1 RES     
    9343 HW1         13.6100    20.2670   -37.2310 HW1           1 RES     
    9344 HW2         14.4040    20.0520   -35.8210 HW2           1 RES     
    9345 OW           8.5190    31.7920   -48.5410 OW            1 RES     
    9346 HW1          9.2340    32.4890   -48.5060 HW1           1 RES     
    9347 HW2          7.6320    32.2300   -48.6920 HW2           1 RES     
    9348 OW           5.7740    19.1040   -32.1300 OW            1 RES     
    9349 HW1          6.4560    19.5190   -32.7310 HW1           1 RES     
    9350 HW2          5.9830    19.3330   -31.1790 HW2           1 RES     
    9351 OW           1.5200     7.8240   -50.5180 OW            1 RES     
    9352 HW1          1.7110     6.8460   -50.5950 HW1           1 RES     
    9353 HW2          0.5330     7.9670   -50.4460 HW2           1 RES     
    9354 OW           9.7690    23.8770   -51.1730 OW            1 RES     
    9355 HW1          9.9800    23.1800   -51.8570 HW1           1 RES     
    9356 HW2         10.3140    24.6960   -51.3510 HW2           1 RES     
    9357 OW           2.9680    24.6080   -32.3540 OW            1 RES     
    9358 HW1          2.8070    25.4600   -31.8580 HW1           1 RES     
    9359 HW2          2.2860    23.9280   -32.0820 HW2           1 RES     
    9360 OW          14.4310     5.2730   -49.1970 OW            1 RES     
    9361 HW1         13.9640     4.4480   -48.8800 HW1           1 RES     
    9362 HW2         14.7340     5.8100   -48.4100 HW2           1 RES     
    9363 OW          34.6090    17.3060   -51.8240 OW            1 RES     
    9364 HW1         35.2190    18.0970   -51.8430 HW1           1 RES     
    9365 HW2         33.6630    17.6100   -51.9410 HW2           1 RES     
    9366 OW          14.2690     9.3080   -34.0340 OW            1 RES     
    9367 HW1         13.6180     8.5520   -34.0920 HW1           1 RES     
    9368 HW2         13.7930    10.1370   -33.7430 HW2           1 RES     
    9369 OW          31.9840    22.7600   -36.6630 OW            1 RES     
    9370 HW1         32.8280    23.1850   -36.3380 HW1           1 RES     
    9371 HW2         32.2070    22.0140   -37.2910 HW2           1 RES     
    9372 OW          24.9260    27.2280   -35.7400 OW            1 RES     
    9373 HW1         25.4880    26.8570   -36.4780 HW1           1 RES     
    9374 HW2         25.0710    28.2150   -35.6720 HW2           1 RES     
    9375 OW          30.9230    11.0850   -36.6300 OW            1 RES     
    9376 HW1         30.9450    12.0230   -36.9710 HW1           1 RES     
    9377 HW2         29.9970    10.7180   -36.7180 HW2           1 RES     
    9378 OW          16.4070     3.5460   -45.6720 OW            1 RES     
    9379 HW1         17.2670     3.6590   -45.1750 HW1           1 RES     
    9380 HW2         16.1130     2.5920   -45.6170 HW2           1 RES     
    9381 OW           4.3170    35.0370   -31.8530 OW            1 RES     
    9382 HW1          5.0550    34.5190   -32.2830 HW1           1 RES     
    9383 HW2          4.2610    34.7960   -30.8830 HW2           1 RES     
    9384 OW          23.8920     2.2930   -54.3660 OW            1 RES     
    9385 HW1         24.4630     3.1120   -54.3170 HW1           1 RES     
    9386 HW2         22.9290     2.5600   -54.4200 HW2           1 RES     
    9387 OW          19.0650     4.8290   -32.3080 OW            1 RES     
    9388 HW1         19.7760     5.4850   -32.5580 HW1           1 RES     
    9389 HW2         19.4810     4.0410   -31.8530 HW2           1 RES     
    9390 OW          28.1260    34.6890   -35.3350 OW            1 RES     
    9391 HW1         28.6630    34.1240   -34.7100 HW1           1 RES     
    9392 HW2         27.2470    34.2450   -35.5150 HW2           1 RES     
    9393 OW          36.6290    26.4830   -35.7130 OW            1 RES     
    9394 HW1         37.2980    26.6250   -36.4420 HW1           1 RES     
    9395 HW2         36.3280    25.5290   -35.7180 HW2           1 RES     
    9396 OW          20.7070    33.8110   -54.4190 OW            1 RES     
    9397 HW1         21.1750    33.3050   -53.6950 HW1           1 RES     
    9398 HW2         19.8970    34.2600   -54.0430 HW2           1 RES     
    9399 OW          21.6250    37.8570   -36.6870 OW            1 RES     
    9400 HW1         20.6510    37.6370   -36.6370 HW1           1 RES     
    9401 HW2         22.1230    37.0820   -37.0760 HW2           1 RES     
    9402 OW           2.7790     8.2680   -53.7230 OW            1 RES     
    9403 HW1          1.9420     8.0360   -54.2180 HW1           1 RES     
    9404 HW2          3.0390     7.5040   -53.1320 HW2           1 RES     
    9405 OW          26.1540     8.7050   -45.6180 OW            1 RES     
    9406 HW1         26.9730     9.1460   -45.9830 HW1           1 RES     
    9407 HW2         25.4640     9.4000   -45.4130 HW2           1 RES     
    9408 OW           8.5960    22.2360   -42.7240 OW            1 RES     
    9409 HW1          8.8880    21.5770   -43.4170 HW1           1 RES     
    9410 HW2          8.8260    21.8880   -41.8150 HW2           1 RES     
    9411 OW          29.8380    34.8030   -37.6490 OW            1 RES     
    9412 HW1         29.8180    35.2030   -38.5650 HW1           1 RES     
    9413 HW2         29.4310    35.4430   -36.9970 HW2           1 RES     
    9414 OW          27.0200    28.6600   -36.6620 OW            1 RES     
    9415 HW1         26.9880    29.3040   -35.8980 HW1           1 RES     
    9416 HW2         26.3540    28.9330   -37.3570 HW2           1 RES     
    9417 OW          23.1130     7.1130   -35.4120 OW            1 RES     
    9418 HW1         22.1590     6.9280   -35.1800 HW1           1 RES     
    9419 HW2         23.2960     8.0920   -35.3180 HW2           1 RES     
    9420 OW          13.2750    -0.9680   -46.2620 OW            1 RES     
    9421 HW1         12.3020    -0.8830   -46.0490 HW1           1 RES     
    9422 HW2         13.5730    -0.1690   -46.7850 HW2           1 RES     
    9423 OW          34.4830    19.6700   -41.4580 OW            1 RES     
    9424 HW1         34.4160    19.2010   -42.3380 HW1           1 RES     
    9425 HW2         35.3650    20.1360   -41.3940 HW2           1 RES     
    9426 OW          34.7490     5.8810   -33.8820 OW            1 RES     
    9427 HW1         35.0430     6.7860   -33.5760 HW1           1 RES     
    9428 HW2         33.7510     5.8570   -33.9440 HW2           1 RES     
    9429 OW          18.6000     9.3790   -41.2030 OW            1 RES     
    9430 HW1         19.1080    10.1920   -41.4850 HW1           1 RES     
    9431 HW2         19.2260     8.6020   -41.1300 HW2           1 RES     
    9432 OW          30.9290    16.0760   -50.6020 OW            1 RES     
    9433 HW1         30.9390    16.6350   -51.4300 HW1           1 RES     
    9434 HW2         30.0510    16.1860   -50.1350 HW2           1 RES     
    9435 OW           2.2050     5.5600   -47.3170 OW            1 RES     
    9436 HW1          2.0890     5.4590   -48.3040 HW1           1 RES     
    9437 HW2          1.5660     4.9560   -46.8420 HW2           1 RES     
    9438 OW          36.0730    13.6660   -51.8710 OW            1 RES     
    9439 HW1         35.4960    14.4830   -51.8780 HW1           1 RES     
    9440 HW2         35.6300    12.9400   -52.3970 HW2           1 RES     
    9441 OW          36.8750    31.7510   -37.4150 OW            1 RES     
    9442 HW1         37.7660    32.1990   -37.3500 HW1           1 RES     
    9443 HW2         37.0010    30.7590   -37.4430 HW2           1 RES     
    9444 OW          33.4890    28.2030   -32.3540 OW            1 RES     
    9445 HW1         34.2790    28.8160   -32.3680 HW1           1 RES     
    9446 HW2         33.5100    27.6510   -31.5200 HW2           1 RES     
    9447 OW          17.0140    38.0190   -49.1520 OW            1 RES     
    9448 HW1         18.0140    38.0370   -49.1400 HW1           1 RES     
    9449 HW2         16.7010    37.3400   -49.8150 HW2           1 RES     
    9450 OW          10.0390     5.3850   -48.4940 OW            1 RES     
    9451 HW1          9.3340     6.0940   -48.5070 HW1           1 RES     
    9452 HW2          9.6670     4.5510   -48.0880 HW2           1 RES     
    9453 OW          38.3610    -0.3690   -35.2500 OW            1 RES     
    9454 HW1         39.0240    -1.1160   -35.2960 HW1           1 RES     
    9455 HW2         38.7240     0.3640   -34.6750 HW2           1 RES     
    9456 OW          27.1270     5.3950   -31.8370 OW            1 RES     
    9457 HW1         27.7390     4.6920   -31.4770 HW1           1 RES     
    9458 HW2         26.2000     5.0260   -31.9100 HW2           1 RES     
    9459 OW          37.3760    21.9870   -44.4960 OW            1 RES     
    9460 HW1         38.2460    21.5400   -44.7010 HW1           1 RES     
    9461 HW2         36.6220    21.3740   -44.7310 HW2           1 RES     
    9462 OW           2.7390    33.4100   -44.7490 OW            1 RES     
    9463 HW1          2.2910    33.0950   -43.9130 HW1           1 RES     
    9464 HW2          3.1410    34.3120   -44.5910 HW2           1 RES     
    9465 OW          36.0420    37.0470   -52.3890 OW            1 RES     
    9466 HW1         36.4180    36.7370   -51.5170 HW1           1 RES     
    9467 HW2         36.0260    36.2840   -53.0360 HW2           1 RES     
    9468 OW          32.9560    24.6490   -51.5560 OW            1 RES     
    9469 HW1         32.0120    24.9740   -51.6050 HW1           1 RES     
    9470 HW2         32.9940    23.8180   -51.0010 HW2           1 RES     
    9471 OW          34.0700    33.4530   -48.5960 OW            1 RES     
    9472 HW1         33.5080    33.5710   -49.4140 HW1           1 RES     
    9473 HW2         34.8220    34.1120   -48.6090 HW2           1 RES     
    9474 OW          33.5290    14.9000   -39.9320 OW            1 RES     
    9475 HW1         34.3830    15.2290   -39.5310 HW1           1 RES     
    9476 HW2         33.0670    14.2950   -39.2830 HW2           1 RES     
    9477 OW          39.1850     3.5520   -47.3550 OW            1 RES     
    9478 HW1         38.9310     3.0460   -46.5320 HW1           1 RES     
    9479 HW2         38.5800     4.3410   -47.4620 HW2           1 RES     
    9480 OW          29.0950    18.3870   -48.4130 OW            1 RES     
    9481 HW1         28.1040    18.4910   -48.3420 HW1           1 RES     
    9482 HW2         29.5130    18.5560   -47.5200 HW2           1 RES     
    9483 OW           3.9520    29.2830   -33.0200 OW            1 RES     
    9484 HW1          3.9790    28.2860   -32.9640 HW1           1 RES     
    9485 HW2          4.8810    29.6360   -33.1360 HW2           1 RES     
    9486 OW          30.0480    24.2700   -32.3840 OW            1 RES     
    9487 HW1         29.2460    23.6750   -32.4340 HW1           1 RES     
    9488 HW2         29.7760    25.1660   -32.0340 HW2           1 RES     
    9489 OW          31.7220    31.9400   -40.5610 OW            1 RES     
    9490 HW1         32.6750    32.2420   -40.5570 HW1           1 RES     
    9491 HW2         31.1190    32.7370   -40.6070 HW2           1 RES     
    9492 OW          35.0380     2.0040   -31.4050 OW            1 RES     
    9493 HW1         34.6520     2.7370   -30.8470 HW1           1 RES     
    9494 HW2         36.0350     2.0150   -31.3270 HW2           1 RES     
    9495 OW           6.6870     4.2740   -37.5940 OW            1 RES     
    9496 HW1          6.9740     3.3780   -37.2580 HW1           1 RES     
    9497 HW2          6.9440     4.3690   -38.5560 HW2           1 RES     
    9498 OW           6.8440    33.6720   -36.1060 OW            1 RES     
    9499 HW1          6.8590    32.6740   -36.0430 HW1           1 RES     
    9500 HW2          5.8980    33.9870   -36.1840 HW2           1 RES     
    9501 OW          22.1000    33.5070   -40.0230 OW            1 RES     
    9502 HW1         21.1520    33.6450   -39.7410 HW1           1 RES     
    9503 HW2         22.5190    34.3920   -40.2320 HW2           1 RES     
    9504 OW          36.9470     7.1950   -31.4850 OW            1 RES     
    9505 HW1         36.3240     6.4450   -31.2660 HW1           1 RES     
    9506 HW2         36.6990     7.5890   -32.3700 HW2           1 RES     
    9507 OW           5.8950     6.6540   -39.4410 OW            1 RES     
    9508 HW1          5.8220     7.5780   -39.0670 HW1           1 RES     
    9509 HW2          5.0440     6.4150   -39.9090 HW2           1 RES     
    9510 OW          20.9010     8.4440   -51.5900 OW            1 RES     
    9511 HW1         20.5070     7.5600   -51.3410 HW1           1 RES     
    9512 HW2         21.7290     8.3000   -52.1330 HW2           1 RES     
    9513 OW          14.6370    17.2900   -38.1700 OW            1 RES     
    9514 HW1         14.8550    16.6620   -37.4240 HW1           1 RES     
    9515 HW2         13.6910    17.6000   -38.0800 HW2           1 RES     
    9516 OW           8.9590    26.9400   -47.4200 OW            1 RES     
    9517 HW1          8.7430    26.1550   -46.8390 HW1           1 RES     
    9518 HW2          8.1490    27.5180   -47.5150 HW2           1 RES     
    9519 OW          34.0610    27.6000   -35.1670 OW            1 RES     
    9520 HW1         34.0790    27.2320   -34.2380 HW1           1 RES     
    9521 HW2         33.7550    26.8900   -35.8020 HW2           1 RES     
    9522 OW          11.4160    35.9060   -46.4640 OW            1 RES     
    9523 HW1         11.9430    36.4620   -47.1060 HW1           1 RES     
    9524 HW2         11.6460    36.1690   -45.5270 HW2           1 RES     
    9525 OW          33.1780     7.2040   -45.1730 OW            1 RES     
    9526 HW1         33.1510     8.1850   -45.3620 HW1           1 RES     
    9527 HW2         32.4840     6.9770   -44.4890 HW2           1 RES     
    9528 OW          -0.7540     9.9830   -48.6570 OW            1 RES     
    9529 HW1         -1.0050     9.9670   -47.6900 HW1           1 RES     
    9530 HW2         -0.5660    10.9240   -48.9380 HW2           1 RES     
    9531 OW          25.5500    12.1520   -46.0930 OW            1 RES     
    9532 HW1         24.9860    12.0230   -45.2770 HW1           1 RES     
    9533 HW2         25.3790    11.4090   -46.7390 HW2           1 RES     
    9534 OW           0.0600     3.9670   -48.7890 OW            1 RES     
    9535 HW1          0.2540     4.7200   -49.4170 HW1           1 RES     
    9536 HW2          0.9200     3.5900   -48.4440 HW2           1 RES     
    9537 OW          17.0820    22.9740   -32.5490 OW            1 RES     
    9538 HW1         17.1760    22.0730   -32.1270 HW1           1 RES     
    9539 HW2         16.2540    22.9950   -33.1110 HW2           1 RES     
    9540 OW          22.5760    -2.0410   -32.0780 OW            1 RES     
    9541 HW1         23.0070    -1.1770   -32.3370 HW1           1 RES     
    9542 HW2         21.9450    -1.8840   -31.3170 HW2           1 RES     
    9543 OW          17.8500     3.6030   -42.5310 OW            1 RES     
    9544 HW1         17.5170     4.3850   -43.0560 HW1           1 RES     
    9545 HW2         17.0780     3.0230   -42.2690 HW2           1 RES     
    9546 OW           0.9070     3.2840   -43.0290 OW            1 RES     
    9547 HW1          1.5290     3.9960   -42.7040 HW1           1 RES     
    9548 HW2          1.4300     2.4650   -43.2630 HW2           1 RES     
    9549 OW          36.6580    -0.4470   -46.2340 OW            1 RES     
    9550 HW1         36.2680    -1.3670   -46.2440 HW1           1 RES     
    9551 HW2         37.4990    -0.4350   -46.7750 HW2           1 RES     
    9552 OW           3.8690    12.9790   -42.1510 OW            1 RES     
    9553 HW1          3.9820    13.9250   -42.4540 HW1           1 RES     
    9554 HW2          3.8710    12.3720   -42.9460 HW2           1 RES     
    9555 OW           1.0960    27.8070   -53.1250 OW            1 RES     
    9556 HW1          0.1640    28.1300   -52.9650 HW1           1 RES     
    9557 HW2          1.6570    28.5600   -53.4690 HW2           1 RES     
    9558 OW          18.7770    29.9080   -42.3510 OW            1 RES     
    9559 HW1         19.6420    30.3870   -42.4930 HW1           1 RES     
    9560 HW2         18.7110    29.1410   -42.9900 HW2           1 RES     
    9561 OW           9.2630    -0.5540   -46.4610 OW            1 RES     
    9562 HW1          9.1860     0.4120   -46.7060 HW1           1 RES     
    9563 HW2          9.4990    -0.6350   -45.4930 HW2           1 RES     
    9564 OW           0.0160    12.4770   -52.5860 OW            1 RES     
    9565 HW1         -0.4100    11.7150   -52.0990 HW1           1 RES     
    9566 HW2         -0.6910    13.1180   -52.8860 HW2           1 RES     
    9567 OW          30.0640    22.9040   -54.0380 OW            1 RES     
    9568 HW1         29.2040    22.5680   -54.4210 HW1           1 RES     
    9569 HW2         29.9860    23.8830   -53.8520 HW2           1 RES     
    9570 OW          34.5140    37.3810   -49.0840 OW            1 RES     
    9571 HW1         35.3510    36.8360   -49.1280 HW1           1 RES     
    9572 HW2         34.7310    38.3410   -49.2610 HW2           1 RES     
    9573 OW          21.8130     2.2420   -43.5010 OW            1 RES     
    9574 HW1         21.0060     2.8100   -43.6600 HW1           1 RES     
    9575 HW2         22.6240     2.7060   -43.8590 HW2           1 RES     
    9576 OW          25.7350    24.7090   -36.8830 OW            1 RES     
    9577 HW1         25.6530    23.7170   -36.9760 HW1           1 RES     
    9578 HW2         26.6830    24.9820   -37.0480 HW2           1 RES     
    9579 OW          13.9330    10.0600   -36.2850 OW            1 RES     
    9580 HW1         13.0840     9.7810   -35.8360 HW1           1 RES     
    9581 HW2         14.1710    10.9890   -36.0010 HW2           1 RES     
    9582 OW           2.6240    27.8560   -42.1030 OW            1 RES     
    9583 HW1          1.6960    27.4860   -42.1440 HW1           1 RES     
    9584 HW2          2.8470    28.0930   -41.1570 HW2           1 RES     
    9585 OW          38.6110    26.3830   -48.2730 OW            1 RES     
    9586 HW1         39.1870    25.5810   -48.4280 HW1           1 RES     
    9587 HW2         39.1880    27.1930   -48.1640 HW2           1 RES     
    9588 OW          23.6300    10.7860   -43.9650 OW            1 RES     
    9589 HW1         23.0090    11.4470   -44.3860 HW1           1 RES     
    9590 HW2         23.1780     9.8970   -43.8990 HW2           1 RES     
    9591 OW          11.2700    32.6760   -50.3420 OW            1 RES     
    9592 HW1         10.3910    32.2010   -50.3870 HW1           1 RES     
    9593 HW2         11.1440    33.5700   -49.9110 HW2           1 RES     
    9594 OW          28.2360    16.8730   -52.8510 OW            1 RES     
    9595 HW1         28.1510    15.8830   -52.9640 HW1           1 RES     
    9596 HW2         29.2020    17.1310   -52.8860 HW2           1 RES     
    9597 OW           2.0210     5.8230   -37.1910 OW            1 RES     
    9598 HW1          2.7340     5.8710   -37.8900 HW1           1 RES     
    9599 HW2          1.4430     6.6370   -37.2470 HW2           1 RES     
    9600 OW          19.4170    14.7170   -44.4970 OW            1 RES     
    9601 HW1         18.4230    14.6150   -44.4630 HW1           1 RES     
    9602 HW2         19.8480    13.9600   -44.0060 HW2           1 RES     
    9603 OW           5.9130    11.8040   -51.1870 OW            1 RES     
    9604 HW1          6.2360    11.2070   -50.4530 HW1           1 RES     
    9605 HW2          5.4610    12.6040   -50.7920 HW2           1 RES     
    9606 OW          22.1490     6.0060   -40.2790 OW            1 RES     
    9607 HW1         22.7910     5.3020   -40.5800 HW1           1 RES     
    9608 HW2         21.3470     6.0050   -40.8770 HW2           1 RES     
    9609 OW          18.6890    37.7830   -31.7480 OW            1 RES     
    9610 HW1         17.8200    37.6120   -32.2110 HW1           1 RES     
    9611 HW2         18.7100    37.2830   -30.8820 HW2           1 RES     
    9612 OW          27.4150     0.2540   -31.2100 OW            1 RES     
    9613 HW1         27.8250     0.0610   -32.1010 HW1           1 RES     
    9614 HW2         26.4910     0.6140   -31.3380 HW2           1 RES     
    9615 OW          11.9470    28.7570   -51.1640 OW            1 RES     
    9616 HW1         11.0550    29.1950   -51.2670 HW1           1 RES     
    9617 HW2         12.6480    29.4560   -51.0240 HW2           1 RES     
    9618 OW          34.4680    22.2800   -39.3850 OW            1 RES     
    9619 HW1         34.0410    22.0770   -38.5040 HW1           1 RES     
    9620 HW2         35.3980    21.9120   -39.3970 HW2           1 RES     
    9621 OW           5.3410    24.8980   -44.0680 OW            1 RES     
    9622 HW1          5.0970    23.9300   -44.1040 HW1           1 RES     
    9623 HW2          4.5080    25.4520   -44.0530 HW2           1 RES     
    9624 OW           8.1000    10.3570   -46.9260 OW            1 RES     
    9625 HW1          7.8460     9.9000   -46.0740 HW1           1 RES     
    9626 HW2          8.4360    11.2770   -46.7250 HW2           1 RES     
    9627 OW          17.1190     0.4550   -42.6450 OW            1 RES     
    9628 HW1         17.9680     0.9770   -42.7150 HW1           1 RES     
    9629 HW2         17.1960    -0.3830   -43.1860 HW2           1 RES     
    9630 OW          24.3440    11.5350   -41.2040 OW            1 RES     
    9631 HW1         24.6630    12.4830   -41.2050 HW1           1 RES     
    9632 HW2         23.3450    11.5190   -41.2570 HW2           1 RES     
    9633 OW          -0.6110    -1.0230   -35.9710 OW            1 RES     
    9634 HW1         -0.9740    -0.6840   -35.1030 HW1           1 RES     
    9635 HW2         -0.0400    -0.3180   -36.3920 HW2           1 RES     
    9636 OW           7.8340     2.0520   -41.7240 OW            1 RES     
    9637 HW1          8.0990     1.8080   -42.6560 HW1           1 RES     
    9638 HW2          7.9800     3.0310   -41.5810 HW2           1 RES     
    9639 OW          18.8200    -1.4400   -30.8460 OW            1 RES     
    9640 HW1         19.7880    -1.4060   -31.0920 HW1           1 RES     
    9641 HW2         18.3350    -2.0460   -31.4770 HW2           1 RES     
    9642 OW          37.8400    32.1930   -42.5830 OW            1 RES     
    9643 HW1         38.1090    31.4020   -42.0340 HW1           1 RES     
    9644 HW2         37.0100    32.5980   -42.2010 HW2           1 RES     
    9645 OW          18.5220    19.6080   -53.0600 OW            1 RES     
    9646 HW1         18.0460    20.4420   -52.7830 HW1           1 RES     
    9647 HW2         18.8820    19.7210   -53.9870 HW2           1 RES     
    9648 OW          36.8250    17.3880   -47.4540 OW            1 RES     
    9649 HW1         35.8900    17.0880   -47.2690 HW1           1 RES     
    9650 HW2         36.9030    18.3680   -47.2740 HW2           1 RES     
    9651 OW          32.9200    17.1450   -40.9450 OW            1 RES     
    9652 HW1         33.3370    16.5710   -41.6490 HW1           1 RES     
    9653 HW2         32.2420    16.6120   -40.4380 HW2           1 RES     
    9654 OW          22.4430    38.3390   -51.5840 OW            1 RES     
    9655 HW1         22.7100    38.3200   -50.6210 HW1           1 RES     
    9656 HW2         21.7950    37.5990   -51.7650 HW2           1 RES     
    9657 OW          -0.1700    28.6980   -40.9060 OW            1 RES     
    9658 HW1         -1.0040    29.1660   -40.6180 HW1           1 RES     
    9659 HW2         -0.3580    28.1490   -41.7210 HW2           1 RES     
    9660 OW          34.1650    23.6930   -31.7900 OW            1 RES     
    9661 HW1         34.3880    22.7260   -31.6760 HW1           1 RES     
    9662 HW2         34.7470    24.0890   -32.5010 HW2           1 RES     
    9663 OW          37.7130     2.6260   -38.8820 OW            1 RES     
    9664 HW1         38.4020     3.2500   -38.5140 HW1           1 RES     
    9665 HW2         36.8230     3.0810   -38.8940 HW2           1 RES     
    9666 OW          25.4120    -1.8020   -32.5220 OW            1 RES     
    9667 HW1         24.9490    -2.0480   -31.6700 HW1           1 RES     
    9668 HW2         26.3650    -1.5700   -32.3290 HW2           1 RES     
    9669 OW          29.5520     1.3280   -42.9980 OW            1 RES     
    9670 HW1         29.0190     1.7170   -43.7490 HW1           1 RES     
    9671 HW2         29.9230     0.4420   -43.2760 HW2           1 RES     
    9672 OW           8.2750    11.2420   -48.9680 OW            1 RES     
    9673 HW1          7.5750    11.9390   -48.8210 HW1           1 RES     
    9674 HW2          7.8370    10.3710   -49.1900 HW2           1 RES     
    9675 OW           1.2050    11.8850   -47.2380 OW            1 RES     
    9676 HW1          0.9270    10.9250   -47.2570 HW1           1 RES     
    9677 HW2          0.8570    12.3490   -48.0530 HW2           1 RES     
    9678 OW          26.5130     4.0930   -46.2920 OW            1 RES     
    9679 HW1         26.9810     3.9570   -47.1650 HW1           1 RES     
    9680 HW2         27.1630     4.4430   -45.6170 HW2           1 RES     
    9681 OW          38.9690    23.0450   -39.9000 OW            1 RES     
    9682 HW1         38.6790    23.9280   -39.5320 HW1           1 RES     
    9683 HW2         38.3810    22.7950   -40.6690 HW2           1 RES     
    9684 OW           0.6580    20.1730   -50.6210 OW            1 RES     
    9685 HW1          0.0800    20.8440   -51.0850 HW1           1 RES     
    9686 HW2          0.2460    19.2650   -50.7010 HW2           1 RES     
    9687 OW          23.4720     5.5640   -52.4050 OW            1 RES     
    9688 HW1         23.8880     5.5570   -53.3140 HW1           1 RES     
    9689 HW2         24.1470     5.2730   -51.7270 HW2           1 RES     
    9690 OW          38.1610     5.1590   -32.8900 OW            1 RES     
    9691 HW1         37.3230     4.7170   -33.2060 HW1           1 RES     
    9692 HW2         38.2400     6.0640   -33.3070 HW2           1 RES     
    9693 OW           4.6420    26.3440   -49.4690 OW            1 RES     
    9694 HW1          5.2270    25.5370   -49.5440 HW1           1 RES     
    9695 HW2          3.6840    26.0710   -49.5570 HW2           1 RES     
    9696 OW          15.5510    -0.2060   -44.6360 OW            1 RES     
    9697 HW1         16.1810     0.4850   -44.9870 HW1           1 RES     
    9698 HW2         14.7610     0.2440   -44.2180 HW2           1 RES     
    9699 OW          15.1080    23.8770   -49.1220 OW            1 RES     
    9700 HW1         16.0090    24.1010   -48.7520 HW1           1 RES     
    9701 HW2         14.4210    24.4780   -48.7130 HW2           1 RES     
    9702 OW          22.1910    33.9400   -34.1270 OW            1 RES     
    9703 HW1         22.7820    34.4960   -33.5440 HW1           1 RES     
    9704 HW2         22.7530    33.3490   -34.7060 HW2           1 RES     
    9705 OW          23.3940    29.6170   -53.3950 OW            1 RES     
    9706 HW1         23.1690    29.1670   -52.5320 HW1           1 RES     
    9707 HW2         24.3710    29.8300   -53.4170 HW2           1 RES     
    9708 OW          17.5350     7.7610   -47.5340 OW            1 RES     
    9709 HW1         16.9820     8.4870   -47.9420 HW1           1 RES     
    9710 HW2         17.0110     7.3050   -46.8150 HW2           1 RES     
    9711 OW          18.0080    29.3460   -32.8180 OW            1 RES     
    9712 HW1         18.9180    29.2450   -33.2180 HW1           1 RES     
    9713 HW2         17.3440    28.8380   -33.3670 HW2           1 RES     
    9714 OW           6.3040    34.2150   -47.1280 OW            1 RES     
    9715 HW1          6.6070    34.5290   -48.0270 HW1           1 RES     
    9716 HW2          6.9700    33.5670   -46.7590 HW2           1 RES     
    9717 OW          20.6010    20.9970   -41.9290 OW            1 RES     
    9718 HW1         21.2840    20.4590   -41.4370 HW1           1 RES     
    9719 HW2         20.0520    20.3920   -42.5060 HW2           1 RES     
    9720 OW          16.9780    34.1710   -46.1980 OW            1 RES     
    9721 HW1         17.5940    33.5260   -45.7470 HW1           1 RES     
    9722 HW2         17.5100    34.8010   -46.7650 HW2           1 RES     
    9723 OW           8.4350     5.4040   -31.3180 OW            1 RES     
    9724 HW1          7.6470     4.8740   -31.0090 HW1           1 RES     
    9725 HW2          8.1350     6.1010   -31.9700 HW2           1 RES     
    9726 OW           5.1750    11.4480   -46.7320 OW            1 RES     
    9727 HW1          5.4890    12.3840   -46.5800 HW1           1 RES     
    9728 HW2          5.5090    10.8600   -45.9950 HW2           1 RES     
    9729 OW           8.7150    -0.7930   -52.6870 OW            1 RES     
    9730 HW1          8.2820    -1.6900   -52.7650 HW1           1 RES     
    9731 HW2          9.6790    -0.8630   -52.9450 HW2           1 RES     
    9732 OW          12.9330    26.3190   -35.6880 OW            1 RES     
    9733 HW1         12.0890    25.8900   -36.0100 HW1           1 RES     
    9734 HW2         13.6170    25.6130   -35.5030 HW2           1 RES     
    9735 OW          39.1880    17.7580   -46.6140 OW            1 RES     
    9736 HW1         39.0920    18.5750   -47.1830 HW1           1 RES     
    9737 HW2         38.5030    17.7770   -45.8850 HW2           1 RES     
    9738 OW           4.2890     3.4450   -49.3730 OW            1 RES     
    9739 HW1          5.0930     3.0910   -48.8970 HW1           1 RES     
    9740 HW2          3.7080     3.9380   -48.7260 HW2           1 RES     
    9741 OW          31.4560    19.0130   -43.1850 OW            1 RES     
    9742 HW1         32.4100    18.7240   -43.1160 HW1           1 RES     
    9743 HW2         30.8570    18.2270   -43.0310 HW2           1 RES     
    9744 OW           9.9390    21.6900   -53.4760 OW            1 RES     
    9745 HW1          8.9560    21.7580   -53.6460 HW1           1 RES     
    9746 HW2         10.1990    20.7280   -53.3960 HW2           1 RES     
    9747 OW           8.1350    28.7080   -52.4940 OW            1 RES     
    9748 HW1          9.0590    28.5060   -52.1710 HW1           1 RES     
    9749 HW2          7.4740    28.4850   -51.7770 HW2           1 RES     
    9750 OW          31.4410    -0.5880   -33.4060 OW            1 RES     
    9751 HW1         30.9610    -1.1400   -32.7250 HW1           1 RES     
    9752 HW2         31.7150     0.2830   -32.9970 HW2           1 RES     
    9753 OW          30.1550    10.2370   -39.8690 OW            1 RES     
    9754 HW1         30.6030     9.3470   -39.9510 HW1           1 RES     
    9755 HW2         30.0100    10.4500   -38.9030 HW2           1 RES     
    9756 OW          32.5710    30.0180   -38.5410 OW            1 RES     
    9757 HW1         31.5870    29.8480   -38.4930 HW1           1 RES     
    9758 HW2         32.7350    30.9950   -38.6810 HW2           1 RES     
    9759 OW          20.4110    28.3560   -50.3430 OW            1 RES     
    9760 HW1         20.0510    29.2870   -50.3960 HW1           1 RES     
    9761 HW2         19.7810    27.7270   -50.7980 HW2           1 RES     
    9762 OW           8.5690    -0.3390   -42.0420 OW            1 RES     
    9763 HW1          7.6460    -0.7050   -41.9280 HW1           1 RES     
    9764 HW2          9.0040    -0.7690   -42.8330 HW2           1 RES     
    9765 OW          31.9960    30.8090   -46.8620 OW            1 RES     
    9766 HW1         32.9230    30.8840   -47.2280 HW1           1 RES     
    9767 HW2         31.6390    29.8930   -47.0450 HW2           1 RES     
    9768 OW          -0.4850    12.3600   -35.5150 OW            1 RES     
    9769 HW1          0.0740    12.8660   -34.8580 HW1           1 RES     
    9770 HW2         -1.0050    13.0040   -36.0770 HW2           1 RES     
    9771 OW          35.7620    32.5940   -31.4450 OW            1 RES     
    9772 HW1         35.4030    31.8810   -30.8450 HW1           1 RES     
    9773 HW2         36.6530    32.8970   -31.1090 HW2           1 RES     
    9774 OW          12.4570    20.2110   -44.7180 OW            1 RES     
    9775 HW1         13.4140    19.9320   -44.6530 HW1           1 RES     
    9776 HW2         12.3300    20.7830   -45.5290 HW2           1 RES     
    9777 OW          36.2620    18.6800   -44.9820 OW            1 RES     
    9778 HW1         36.6270    17.7840   -44.7290 HW1           1 RES     
    9779 HW2         37.0120    19.2750   -45.2730 HW2           1 RES     
    9780 OW          31.8400    22.9170   -31.6890 OW            1 RES     
    9781 HW1         31.7450    21.9270   -31.5900 HW1           1 RES     
    9782 HW2         32.2160    23.3020   -30.8460 HW2           1 RES     
    9783 OW           9.7220    18.2890   -49.2070 OW            1 RES     
    9784 HW1          9.8780    18.8920   -49.9880 HW1           1 RES     
    9785 HW2         10.3740    17.5310   -49.2350 HW2           1 RES     
    9786 OW          -0.0570     8.3520   -34.0960 OW            1 RES     
    9787 HW1         -0.4510     7.4350   -34.0420 HW1           1 RES     
    9788 HW2          0.9400     8.2870   -34.1230 HW2           1 RES     
    9789 OW          24.0400     7.2550   -32.1940 OW            1 RES     
    9790 HW1         24.2200     8.1980   -32.4710 HW1           1 RES     
    9791 HW2         23.8400     7.2270   -31.2140 HW2           1 RES     
    9792 OW           8.4340    26.6070   -39.1220 OW            1 RES     
    9793 HW1          9.0810    26.8850   -39.8320 HW1           1 RES     
    9794 HW2          7.9020    27.4000   -38.8260 HW2           1 RES     
    9795 OW          14.7880    24.3310   -51.2510 OW            1 RES     
    9796 HW1         14.9660    23.5090   -51.7900 HW1           1 RES     
    9797 HW2         14.8520    25.1370   -51.8400 HW2           1 RES     
    9798 OW          13.9520    17.7370   -51.2720 OW            1 RES     
    9799 HW1         12.9940    17.6450   -51.5400 HW1           1 RES     
    9800 HW2         14.3060    16.8460   -50.9870 HW2           1 RES     
    9801 OW          14.6680     6.7590   -50.9010 OW            1 RES     
    9802 HW1         14.6960     7.2890   -50.0550 HW1           1 RES     
    9803 HW2         15.5120     6.2290   -50.9920 HW2           1 RES     
    9804 OW          35.8980    32.6180   -45.0710 OW            1 RES     
    9805 HW1         35.3820    33.1570   -44.4060 HW1           1 RES     
    9806 HW2         36.8320    32.4850   -44.7410 HW2           1 RES     
    9807 OW          23.0280    23.3040   -37.3540 OW            1 RES     
    9808 HW1         22.5130    22.5370   -36.9710 HW1           1 RES     
    9809 HW2         23.7930    22.9550   -37.8940 HW2           1 RES     
    9810 OW          38.3210    29.1090   -43.3990 OW            1 RES     
    9811 HW1         38.7570    28.8540   -44.2620 HW1           1 RES     
    9812 HW2         37.8770    28.3070   -43.0000 HW2           1 RES     
    9813 OW          37.9680    20.6810   -40.1770 OW            1 RES     
    9814 HW1         37.8830    21.1440   -39.2960 HW1           1 RES     
    9815 HW2         37.2470    19.9930   -40.2630 HW2           1 RES     
    9816 OW          20.6380    34.5230   -45.7070 OW            1 RES     
    9817 HW1         20.9090    33.5730   -45.5540 HW1           1 RES     
    9818 HW2         19.6440    34.5740   -45.8050 HW2           1 RES     
    9819 OW           4.3700    10.5700   -34.6150 OW            1 RES     
    9820 HW1          4.5900    10.2600   -33.6900 HW1           1 RES     
    9821 HW2          4.4500    11.5660   -34.6610 HW2           1 RES     
    9822 OW          35.6840     7.7090   -53.9540 OW            1 RES     
    9823 HW1         35.4240     8.6580   -53.7810 HW1           1 RES     
    9824 HW2         36.5680     7.6840   -54.4210 HW2           1 RES     
    9825 OW           1.6930    23.7380   -43.4830 OW            1 RES     
    9826 HW1          2.5980    23.3580   -43.6700 HW1           1 RES     
    9827 HW2          1.4540    24.3980   -44.1950 HW2           1 RES     
    9828 OW          25.8610    33.9730   -54.2300 OW            1 RES     
    9829 HW1         26.0300    34.9390   -54.4210 HW1           1 RES     
    9830 HW2         26.6880    33.5570   -53.8530 HW2           1 RES     
    9831 OW          34.7370    21.9830   -36.3870 OW            1 RES     
    9832 HW1         34.2470    21.1130   -36.3480 HW1           1 RES     
    9833 HW2         35.5680    21.8740   -36.9340 HW2           1 RES     
    9834 OW           4.6290    13.6280   -44.6880 OW            1 RES     
    9835 HW1          3.9340    13.0120   -45.0580 HW1           1 RES     
    9836 HW2          5.4660    13.1130   -44.5010 HW2           1 RES     
    9837 OW           2.6580     4.2890   -39.8440 OW            1 RES     
    9838 HW1          3.0810     3.3840   -39.8550 HW1           1 RES     
    9839 HW2          3.3710     4.9900   -39.8030 HW2           1 RES     
    9840 OW           4.7520    23.4190   -50.1760 OW            1 RES     
    9841 HW1          3.8890    23.7750   -49.8190 HW1           1 RES     
    9842 HW2          4.5970    22.5240   -50.5950 HW2           1 RES     
    9843 OW          32.2400     8.6570   -43.0900 OW            1 RES     
    9844 HW1         31.3470     8.7450   -42.6490 HW1           1 RES     
    9845 HW2         32.4160     9.4660   -43.6520 HW2           1 RES     
    9846 OW          26.8220    23.7400   -50.1800 OW            1 RES     
    9847 HW1         27.4560    24.4260   -49.8260 HW1           1 RES     
    9848 HW2         26.0670    24.1950   -50.6530 HW2           1 RES     
    9849 OW          24.4640    15.9630   -38.2470 OW            1 RES     
    9850 HW1         23.5630    16.3890   -38.3100 HW1           1 RES     
    9851 HW2         25.1390    16.6470   -37.9680 HW2           1 RES     
    9852 OW          15.1890    35.4130   -46.5090 OW            1 RES     
    9853 HW1         14.3240    34.9490   -46.6950 HW1           1 RES     
    9854 HW2         15.0320    36.1680   -45.8720 HW2           1 RES     
    9855 OW          37.2630    34.2030   -49.2040 OW            1 RES     
    9856 HW1         37.5270    35.1440   -49.4150 HW1           1 RES     
    9857 HW2         38.0650    33.6090   -49.2720 HW2           1 RES     
    9858 OW          27.5550     3.5660   -35.2220 OW            1 RES     
    9859 HW1         26.9090     4.2120   -35.6280 HW1           1 RES     
    9860 HW2         28.1220     3.1650   -35.9420 HW2           1 RES     
    9861 OW          19.0100    36.1690   -52.2850 OW            1 RES     
    9862 HW1         19.9590    36.4750   -52.2210 HW1           1 RES     
    9863 HW2         18.7830    35.9810   -53.2410 HW2           1 RES     
    9864 OW          19.1930    30.6010   -36.4050 OW            1 RES     
    9865 HW1         18.2380    30.3800   -36.2120 HW1           1 RES     
    9866 HW2         19.7890    29.9960   -35.8770 HW2           1 RES     
    9867 OW          12.5010    23.0490   -54.2870 OW            1 RES     
    9868 HW1         11.8220    22.3270   -54.4190 HW1           1 RES     
    9869 HW2         12.1250    23.7550   -53.6870 HW2           1 RES     
    9870 OW          23.5660    24.4870   -54.4190 OW            1 RES     
    9871 HW1         23.2610    25.3540   -54.0270 HW1           1 RES     
    9872 HW2         23.7070    23.8200   -53.6870 HW2           1 RES     
    9873 OW          32.0100     3.3630   -32.1550 OW            1 RES     
    9874 HW1         31.2480     2.7220   -32.2320 HW1           1 RES     
    9875 HW2         32.8720     2.8560   -32.1340 HW2           1 RES     
    9876 OW          13.2920    28.7120   -53.4460 OW            1 RES     
    9877 HW1         12.5720    29.3920   -53.3110 HW1           1 RES     
    9878 HW2         13.5010    28.6360   -54.4210 HW2           1 RES     
    9879 OW          12.1590    11.5900   -36.6790 OW            1 RES     
    9880 HW1         12.4800    12.0600   -37.5010 HW1           1 RES     
    9881 HW2         11.1600    11.6300   -36.6410 HW2           1 RES     
    9882 OW           3.1750    31.9300   -32.4950 OW            1 RES     
    9883 HW1          3.4700    32.7710   -32.0420 HW1           1 RES     
    9884 HW2          2.2180    31.7480   -32.2700 HW2           1 RES     
    9885 OW          19.6030    35.8370   -39.7980 OW            1 RES     
    9886 HW1         19.8750    35.3020   -40.5970 HW1           1 RES     
    9887 HW2         18.6110    35.7790   -39.6790 HW2           1 RES     
    9888 OW          15.5510    11.5460   -34.0600 OW            1 RES     
    9889 HW1         15.8750    10.7390   -34.5510 HW1           1 RES     
    9890 HW2         15.9560    11.5660   -33.1460 HW2           1 RES     
    9891 OW          28.8900    27.5260   -52.5370 OW            1 RES     
    9892 HW1         29.5710    27.4980   -53.2680 HW1           1 RES     
    9893 HW2         27.9720    27.5090   -52.9340 HW2           1 RES     
    9894 OW          28.6130    34.6470   -54.2780 OW            1 RES     
    9895 HW1         29.5910    34.7930   -54.4210 HW1           1 RES     
    9896 HW2         28.1430    35.5300   -54.2540 HW2           1 RES     
    9897 OW          37.7800     2.2150   -44.2710 OW            1 RES     
    9898 HW1         37.4290     1.5710   -44.9500 HW1           1 RES     
    9899 HW2         37.5730     3.1510   -44.5590 HW2           1 RES     
    9900 OW           1.2770    22.4480   -36.9770 OW            1 RES     
    9901 HW1          0.6760    22.9100   -37.6290 HW1           1 RES     
    9902 HW2          1.2840    22.9530   -36.1140 HW2           1 RES     
    9903 OW          25.4850    18.9640   -36.3300 OW            1 RES     
    9904 HW1         24.9730    19.7380   -36.7000 HW1           1 RES     
    9905 HW2         26.4550    19.0700   -36.5470 HW2           1 RES     
    9906 OW          11.3970    11.3590   -33.4180 OW            1 RES     
    9907 HW1         12.0500    11.0270   -32.7380 HW1           1 RES     
    9908 HW2         11.3910    10.7420   -34.2040 HW2           1 RES     
    9909 OW           8.6550     5.2080   -36.7540 OW            1 RES     
    9910 HW1          8.6630     5.7140   -37.6160 HW1           1 RES     
    9911 HW2          9.1340     4.3380   -36.8740 HW2           1 RES     
    9912 OW           2.1670    35.4770   -40.4570 OW            1 RES     
    9913 HW1          2.6600    36.0950   -39.8450 HW1           1 RES     
    9914 HW2          1.1860    35.5410   -40.2770 HW2           1 RES     
    9915 OW          26.0190    24.1130   -47.2510 OW            1 RES     
    9916 HW1         25.8270    24.9070   -47.8270 HW1           1 RES     
    9917 HW2         26.9980    23.9110   -47.2750 HW2           1 RES     
    9918 OW          29.8740    25.0590   -42.5290 OW            1 RES     
    9919 HW1         29.9480    24.5170   -43.3660 HW1           1 RES     
    9920 HW2         29.3290    24.5610   -41.8550 HW2           1 RES     
    9921 OW          15.2440    29.2800   -50.1420 OW            1 RES     
    9922 HW1         14.7760    28.4750   -49.7790 HW1           1 RES     
    9923 HW2         16.1450    29.0160   -50.4860 HW2           1 RES     
    9924 OW          20.8800    27.4830   -35.6930 OW            1 RES     
    9925 HW1         20.8410    26.7070   -36.3220 HW1           1 RES     
    9926 HW2         21.1600    28.3040   -36.1910 HW2           1 RES     
    9927 OW          24.9140    32.7180   -33.1520 OW            1 RES     
    9928 HW1         24.0260    32.2750   -33.2700 HW1           1 RES     
    9929 HW2         24.8320    33.6920   -33.3630 HW2           1 RES     
    9930 OW          28.2150    21.7720   -51.0940 OW            1 RES     
    9931 HW1         28.9750    21.1240   -51.1390 HW1           1 RES     
    9932 HW2         28.5740    22.7060   -51.0710 HW2           1 RES     
    9933 OW           4.5250     5.7080   -49.7450 OW            1 RES     
    9934 HW1          3.6600     6.2040   -49.6850 HW1           1 RES     
    9935 HW2          5.2860     6.3530   -49.6730 HW2           1 RES     
    9936 OW          28.2660    11.0780   -45.3240 OW            1 RES     
    9937 HW1         27.4680    11.5690   -44.9770 HW1           1 RES     
    9938 HW2         29.0050    11.7260   -45.5060 HW2           1 RES     
    9939 OW          15.2050    37.7630   -32.4690 OW            1 RES     
    9940 HW1         15.7430    38.3400   -33.0820 HW1           1 RES     
    9941 HW2         14.6770    38.3400   -31.8450 HW2           1 RES     
    9942 OW          26.9560    -0.5640   -40.9920 OW            1 RES     
    9943 HW1         27.6880    -1.2440   -40.9600 HW1           1 RES     
    9944 HW2         26.0770    -1.0120   -40.8320 HW2           1 RES     
    9945 OW           9.6100    10.6120   -51.5440 OW            1 RES     
    9946 HW1          9.8940    11.2140   -50.7980 HW1           1 RES     
    9947 HW2         10.3400     9.9570   -51.7410 HW2           1 RES     
    9948 OW          23.1080    13.9220   -43.8080 OW            1 RES     
    9949 HW1         22.6410    14.8010   -43.8890 HW1           1 RES     
    9950 HW2         24.0880    14.0750   -43.6770 HW2           1 RES     
    9951 OW          28.4620    35.9340   -48.5430 OW            1 RES     
    9952 HW1         27.9960    35.1150   -48.8750 HW1           1 RES     
    9953 HW2         29.3940    35.6980   -48.2650 HW2           1 RES     
    9954 OW          19.1120    30.4530   -40.0420 OW            1 RES     
    9955 HW1         19.6930    29.6410   -40.0860 HW1           1 RES     
    9956 HW2         19.6640    31.2690   -40.2160 HW2           1 RES     
    9957 OW          22.6740    27.6910   -39.6140 OW            1 RES     
    9958 HW1         23.4210    27.0280   -39.6380 HW1           1 RES     
    9959 HW2         22.0940    27.5130   -38.8190 HW2           1 RES     
    9960 OW          17.7420    23.3340   -36.1300 OW            1 RES     
    9961 HW1         16.8000    23.6470   -36.2480 HW1           1 RES     
    9962 HW2         17.7520    22.3400   -36.0210 HW2           1 RES     
    9963 OW          15.2560    17.8500   -44.0250 OW            1 RES     
    9964 HW1         14.5780    18.2900   -43.4360 HW1           1 RES     
    9965 HW2         14.9740    17.9370   -44.9810 HW2           1 RES     
    9966 OW          17.8710    33.1240   -35.9580 OW            1 RES     
    9967 HW1         18.8060    32.7730   -35.9730 HW1           1 RES     
    9968 HW2         17.2270    32.3590   -35.9740 HW2           1 RES     
    9969 OW          29.9880    36.7040   -34.5970 OW            1 RES     
    9970 HW1         30.6430    36.1040   -35.0560 HW1           1 RES     
    9971 HW2         29.1130    36.6750   -35.0800 HW2           1 RES     
    9972 OW          14.7690    12.1350   -52.9420 OW            1 RES     
    9973 HW1         14.3210    13.0240   -52.8540 HW1           1 RES     
    9974 HW2         14.0760    11.4190   -53.0330 HW2           1 RES     
    9975 OW          36.5540    11.6130   -39.1240 OW            1 RES     
    9976 HW1         37.2460    11.0740   -39.6020 HW1           1 RES     
    9977 HW2         36.8230    11.7300   -38.1680 HW2           1 RES     
    9978 OW          17.0240    -2.0480   -45.9260 OW            1 RES     
    9979 HW1         16.0270    -2.0010   -45.9790 HW1           1 RES     
    9980 HW2         17.3580    -1.3480   -45.2940 HW2           1 RES     
    9981 OW          19.2310     2.2870   -44.8620 OW            1 RES     
    9982 HW1         19.9660     1.7860   -45.3180 HW1           1 RES     
    9983 HW2         18.3820     1.7600   -44.9190 HW2           1 RES     
    9984 OW           2.5760     2.2320   -34.7670 OW            1 RES     
    9985 HW1          2.9280     2.3700   -33.8420 HW1           1 RES     
    9986 HW2          3.2980     1.8540   -35.3470 HW2           1 RES     
    9987 OW          37.4200    18.5810   -36.2140 OW            1 RES     
    9988 HW1         37.7800    19.4750   -36.4780 HW1           1 RES     
    9989 HW2         37.9380    17.8620   -36.6780 HW2           1 RES     
    9990 OW           3.2220    28.1980   -44.4460 OW            1 RES     
    9991 HW1          3.2170    27.2320   -44.1890 HW1           1 RES     
    9992 HW2          2.3680    28.6260   -44.1500 HW2           1 RES     
    9993 OW           0.4470    15.1370   -53.1250 OW            1 RES     
    9994 HW1          1.0150    15.7640   -52.5930 HW1           1 RES     
    9995 HW2          0.0540    15.6230   -53.9060 HW2           1 RES     
    9996 OW          26.2990    29.4500   -52.4300 OW            1 RES     
    9997 HW1         27.0220    29.1450   -51.8100 HW1           1 RES     
    9998 HW2         26.5750    29.2760   -53.3760 HW2           1 RES     
    9999 OW          19.3040    32.1540   -53.8120 OW            1 RES     
   10000 HW1         19.8540    31.3510   -54.0370 HW1           1 RES     
   10001 HW2         18.5110    32.1960   -54.4210 HW2           1 RES     
   10002 OW           3.4350    32.0720   -48.5330 OW            1 RES     
   10003 HW1          3.8920    32.7630   -47.9740 HW1           1 RES     
   10004 HW2          2.5230    32.3960   -48.7850 HW2           1 RES     
   10005 OW          13.6350     1.1770   -42.5730 OW            1 RES     
   10006 HW1         13.1700     1.7150   -41.8710 HW1           1 RES     
   10007 HW2         13.1680     0.2990   -42.6850 HW2           1 RES     
   10008 OW          35.2960     0.6050   -38.8390 OW            1 RES     
   10009 HW1         35.7230     1.2070   -38.1650 HW1           1 RES     
   10010 HW2         35.8970    -0.1750   -39.0180 HW2           1 RES     
   10011 OW           0.0280    25.2810   -33.3490 OW            1 RES     
   10012 HW1          0.9470    25.2310   -33.7390 HW1           1 RES     
   10013 HW2          0.0810    25.6390   -32.4160 HW2           1 RES     
   10014 OW          26.7920    29.9240   -45.4360 OW            1 RES     
   10015 HW1         27.5770    29.3670   -45.7040 HW1           1 RES     
   10016 HW2         26.1860    29.3870   -44.8490 HW2           1 RES     
   10017 OW           6.1050     5.8880   -44.2290 OW            1 RES     
   10018 HW1          5.5570     5.1510   -43.8350 HW1           1 RES     
   10019 HW2          6.9890     5.5250   -44.5240 HW2           1 RES     
   10020 OW          23.5090     7.7210   -44.0110 OW            1 RES     
   10021 HW1         22.5700     7.3910   -43.9260 HW1           1 RES     
   10022 HW2         24.1410     6.9480   -43.9560 HW2           1 RES     
   10023 OW          32.9840     0.4100   -54.1550 OW            1 RES     
   10024 HW1         33.2570    -0.5310   -53.9590 HW1           1 RES     
   10025 HW2         33.7880     0.9430   -54.4210 HW2           1 RES     
   10026 OW          24.5990     3.2140   -32.6450 OW            1 RES     
   10027 HW1         23.6060     3.0990   -32.6260 HW1           1 RES     
   10028 HW2         24.8570     3.7600   -33.4420 HW2           1 RES     
   10029 OW          18.2450    33.4280   -39.7770 OW            1 RES     
   10030 HW1         18.9200    33.3220   -40.5060 HW1           1 RES     
   10031 HW2         18.1530    32.5650   -39.2790 HW2           1 RES     
   10032 OW          16.7760    14.0730   -42.8790 OW            1 RES     
   10033 HW1         15.8360    14.4090   -42.9220 HW1           1 RES     
   10034 HW2         17.3600    14.7670   -42.4570 HW2           1 RES     
   10035 OW          35.1260     3.5920   -35.1740 OW            1 RES     
   10036 HW1         35.8220     4.1610   -34.7380 HW1           1 RES     
   10037 HW2         34.2280     4.0160   -35.0600 HW2           1 RES     
   10038 OW           9.4560    29.5980   -32.5140 OW            1 RES     
   10039 HW1          8.5450    30.0100   -32.5040 HW1           1 RES     
   10040 HW2         10.1480    30.3190   -32.5600 HW2           1 RES     
   10041 OW           5.3230    21.6340   -45.7020 OW            1 RES     
   10042 HW1          5.1730    20.6590   -45.5440 HW1           1 RES     
   10043 HW2          6.0060    21.9760   -45.0550 HW2           1 RES     
   10044 OW           4.6410    17.0140   -41.2380 OW            1 RES     
   10045 HW1          4.7740    17.8980   -41.6860 HW1           1 RES     
   10046 HW2          5.5310    16.6200   -41.0070 HW2           1 RES     
   10047 OW          37.6890    23.5500   -51.6710 OW            1 RES     
   10048 HW1         38.0750    22.6360   -51.5520 HW1           1 RES     
   10049 HW2         37.2130    23.6000   -52.5490 HW2           1 RES     
   10050 OW          11.4690     0.2520   -50.1660 OW            1 RES     
   10051 HW1         11.2220     1.1460   -49.7940 HW1           1 RES     
   10052 HW2         12.4610     0.2010   -50.2840 HW2           1 RES     
   10053 OW          31.3370     9.2410   -30.8460 OW            1 RES     
   10054 HW1         32.2740     9.5750   -30.9380 HW1           1 RES     
   10055 HW2         31.0070     8.9200   -31.7340 HW2           1 RES     
   10056 OW          19.9210    15.6460   -38.8480 OW            1 RES     
   10057 HW1         20.8640    15.5860   -39.1720 HW1           1 RES     
   10058 HW2         19.8000    15.0460   -38.0570 HW2           1 RES     
   10059 OW           8.6070    -1.2360   -38.9840 OW            1 RES     
   10060 HW1          9.3970    -1.6430   -39.4400 HW1           1 RES     
   10061 HW2          8.7380    -1.2710   -37.9930 HW2           1 RES     
   10062 OW          30.5970    31.6000   -42.4270 OW            1 RES     
   10063 HW1         31.0330    32.4260   -42.7830 HW1           1 RES     
   10064 HW2         29.6290    31.7820   -42.2530 HW2           1 RES     
   10065 OW          34.7390     2.2430   -46.0630 OW            1 RES     
   10066 HW1         33.8760     1.7670   -45.8970 HW1           1 RES     
   10067 HW2         35.1180     2.5600   -45.1940 HW2           1 RES     
   10068 OW           2.6520    15.0280   -53.8650 OW            1 RES     
   10069 HW1          3.3590    14.5900   -54.4200 HW1           1 RES     
   10070 HW2          2.7040    16.0200   -53.9790 HW2           1 RES     
   10071 OW          18.3920     0.3340   -32.0740 OW            1 RES     
   10072 HW1         17.5630     0.7220   -32.4750 HW1           1 RES     
   10073 HW2         18.8140    -0.2970   -32.7250 HW2           1 RES     
   10074 OW          18.5550    30.4400   -44.7590 OW            1 RES     
   10075 HW1         17.7390    31.0160   -44.7800 HW1           1 RES     
   10076 HW2         19.3640    31.0110   -44.6180 HW2           1 RES     
   10077 OW          35.4970    37.6290   -31.7120 OW            1 RES     
   10078 HW1         36.1880    38.3410   -31.8290 HW1           1 RES     
   10079 HW2         34.5920    38.0500   -31.6440 HW2           1 RES     
   10080 OW          22.2030    13.4130   -34.2960 OW            1 RES     
   10081 HW1         22.8970    12.7580   -34.5900 HW1           1 RES     
   10082 HW2         22.4110    14.3140   -34.6790 HW2           1 RES     
   10083 OW          26.3310     4.1620   -40.5940 OW            1 RES     
   10084 HW1         26.8600     3.8820   -41.3950 HW1           1 RES     
   10085 HW2         25.6680     4.8620   -40.8600 HW2           1 RES     
   10086 OW          34.4910    25.6210   -42.3790 OW            1 RES     
   10087 HW1         34.0160    24.7530   -42.5180 HW1           1 RES     
   10088 HW2         35.4460    25.5280   -42.6610 HW2           1 RES     
   10089 OW          12.0020     1.9640   -47.7480 OW            1 RES     
   10090 HW1         12.9240     1.6200   -47.9220 HW1           1 RES     
   10091 HW2         11.9740     2.9480   -47.9230 HW2           1 RES     
   10092 OW           7.8530    32.5020   -39.0000 OW            1 RES     
   10093 HW1          7.1950    31.9460   -39.5080 HW1           1 RES     
   10094 HW2          8.2050    31.9770   -38.2250 HW2           1 RES     
   10095 OW          10.1050    37.6490   -47.3370 OW            1 RES     
   10096 HW1          9.4930    38.3410   -47.7190 HW1           1 RES     
   10097 HW2          9.7550    37.3480   -46.4490 HW2           1 RES     
   10098 OW           2.8400    11.0170   -48.6620 OW            1 RES     
   10099 HW1          3.2570    11.3330   -47.8110 HW1           1 RES     
   10100 HW2          2.5020    10.0830   -48.5420 HW2           1 RES     
   10101 OW          11.5510    21.3550   -42.6410 OW            1 RES     
   10102 HW1         11.1480    21.9830   -43.3060 HW1           1 RES     
   10103 HW2         10.8420    21.0330   -42.0130 HW2           1 RES     
   10104 OW          11.9710     3.7370   -43.3840 OW            1 RES     
   10105 HW1         11.3820     4.4810   -43.6970 HW1           1 RES     
   10106 HW2         12.4080     3.3030   -44.1710 HW2           1 RES     
   10107 OW          27.2970    11.1230   -34.9920 OW            1 RES     
   10108 HW1         27.2650    12.1060   -35.1740 HW1           1 RES     
   10109 HW2         26.5030    10.8590   -34.4460 HW2           1 RES     
   10110 OW          36.5260    31.6750   -47.3990 OW            1 RES     
   10111 HW1         35.6120    31.3480   -47.6360 HW1           1 RES     
   10112 HW2         36.7060    32.5370   -47.8740 HW2           1 RES     
@<TRIPOS>BOND
       1     2570     2568 1
       2     1006     1007 1
       3     7989     7990 1
       4     7827     7828 1
       5     7908     7909 1
       6     8136     8138 1
       7     7893     7895 1
       8    10053    10055 1
       9     8055     8057 1
      10     9729     9731 1
      11     9297     9299 1
      12     9459     9461 1
      13     7542     7544 1
      14     9972     9974 1
      15     1213     1214 1
      16      985      986 1
      17     9987     9988 1
      18     7548     7549 1
      19     9846     9847 1
      20     6075     6076 1
      21     6426     6427 1
      22     2442     2443 1
      23     2754     2755 1
      24     5913     5914 1
      25     4158     4159 1
      26      491      492 1
      27     4671     4672 1
      28     4509     4510 1
      29      263      264 1
      30      818      819 1
      31     2601     2603 1
      32      829      828 1
      33     1822     1807 1
      34     5610     5612 1
      35     5745     5746 1
      36     1423     1408 1
      37     1637     1638 1
      38     9153     9155 1
      39     3939     3940 1
      40     3777     3778 1
      41     4776     4777 1
      42     9183     9184 1
      43       37       38 1
      44     6780     6781 1
      45     9561     9562 1
      46     7644     7645 1
      47     7806     7807 1
      48     6942     6943 1
      49     7482     7483 1
      50    10056    10057 1
      51      462      463 1
      52      425      426 1
      53      690      691 1
      54     4965     4967 1
      55     3459     3460 1
      56     5538     5539 1
      57     5376     5377 1
      58     3216     3217 1
      59     3378     3379 1
      60     5457     5458 1
      61     3621     3622 1
      62     4188     4190 1
      63     1188     1189 1
      64      877      878 1
      65     5106     5108 1
      66     1151     1152 1
      67      464      465 1
      68     4269     4271 1
      69     6186     6188 1
      70      612      613 1
      71     7926     7928 1
      72     3513     3515 1
      73      714      715 1
      74     7338     7339 1
      75     8466     8468 1
      76       40       41 1
      77      731      732 1
      78     6543     6545 1
      79     4464     4466 1
      80     1215     1216 1
      81     2338     2339 1
      82     8202     8203 1
      83     7203     7204 1
      84     9120     9121 1
      85      164      165 1
      86      253      252 1
      87     8862     8863 1
      88     7107     7108 1
      89     9942     9943 1
      90     8025     8026 1
      91     9024     9025 1
      92     9780     9781 1
      93     9318     9320 1
      94     2335     2320 1
      95      685      686 1
      96      343      344 1
      97      838      839 1
      98     1218     1219 1
      99      846      847 1
     100     8685     8687 1
     101     9252     9254 1
     102     9090     9092 1
     103      568      569 1
     104     1405     1406 1
     105     5148     5149 1
     106     3150     3151 1
     107     3231     3232 1
     108     4986     4987 1
     109     3312     3313 1
     110     1935     1936 1
     111     4212     4213 1
     112     2183     2184 1
     113     7290     7292 1
     114     9369     9371 1
     115     8289     8291 1
     116     3807     3808 1
     117      990      989 1
     118     9450     9452 1
     119       26       27 1
     120     1585     1586 1
     121     1511     1512 1
     122     9030     9031 1
     123     5112     5113 1
     124     5841     5842 1
     125     4275     4276 1
     126     3600     3601 1
     127     3762     3763 1
     128     6192     6193 1
     129     3519     3520 1
     130     2655     2657 1
     131     5679     5680 1
     132     4842     4843 1
     133     3879     3881 1
     134     3114     3115 1
     135      792      791 1
     136      977      976 1
     137      866      865 1
     138     6669     6670 1
     139     8493     8494 1
     140     8223     8224 1
     141      588      589 1
     142     8061     8062 1
     143    10086    10087 1
     144     5448     5449 1
     145     9978     9979 1
     146     3720     3722 1
     147     2802     2804 1
     148     4287     4289 1
     149     7113     7114 1
     150     7032     7033 1
     151     6366     6368 1
     152     2181     2180 1
     153     7356     7357 1
     154     9192     9193 1
     155     6042     6044 1
     156     2366     2365 1
     157     6951     6952 1
     158      701      702 1
     159     2218     2219 1
     160     2403     2404 1
     161     2499     2501 1
     162      929      914 1
     163     6240     6241 1
     164     6645     6646 1
     165     6483     6484 1
     166     4404     4405 1
     167     4647     4648 1
     168     1703     1702 1
     169     1238     1237 1
     170     1965     1966 1
     171     2150     2151 1
     172     4281     4282 1
     173     4119     4120 1
     174     6036     6037 1
     175     5280     5281 1
     176     6360     6361 1
     177      729      730 1
     178     5034     5035 1
     179     3540     3542 1
     180     5781     5783 1
     181     5196     5197 1
     182     3279     3280 1
     183     6546     6547 1
     184     5619     5621 1
     185      803      804 1
     186     5700     5702 1
     187     3702     3704 1
     188     4218     4219 1
     189     1024     1009 1
     190     7860     7862 1
     191     3774     3775 1
     192     4314     4315 1
     193     4476     4477 1
     194     7617     7619 1
     195     3936     3937 1
     196     1651     1652 1
     197     9696     9698 1
     198     7455     7457 1
     199     7698     7700 1
     200     6648     6649 1
     201     6756     6757 1
     202     4407     4408 1
     203     6486     6487 1
     204     1671     1672 1
     205     2646     2647 1
     206     4839     4840 1
     207     6594     6595 1
     208     8001     8002 1
     209     7920     7921 1
     210     7839     7840 1
     211     5793     5795 1
     212     8253     8254 1
     213     7335     7336 1
     214     2392     2377 1
     215     1092     1093 1
     216     8826     8828 1
     217      553      554 1
     218     1055     1056 1
     219     8286     8288 1
     220     8019     8020 1
     221     9018     9019 1
     222     8856     8857 1
     223     7101     7102 1
     224     9936     9937 1
     225     9774     9775 1
     226      719      720 1
     227     2363     2364 1
     228     2178     2179 1
     229     3318     3320 1
     230     4992     4994 1
     231     5073     5075 1
     232     3156     3158 1
     233     3237     3239 1
     234     5154     5156 1
     235     3549     3550 1
     236     5643     5644 1
     237     7506     7508 1
     238     7668     7670 1
     239     1214     1215 1
     240     7884     7886 1
     241     8046     8048 1
     242     8127     8129 1
     243     9720     9722 1
     244     9504     9506 1
     245     7587     7589 1
     246      871      872 1
     247     2084     2085 1
     248     1243     1244 1
     249     1579     1580 1
     250     8322     8324 1
     251     9714     9716 1
     252      872      857 1
     253     3039     3041 1
     254     5118     5120 1
     255     3957     3959 1
     256     6198     6200 1
     257     1784     1785 1
     258     6216     6218 1
     259     5136     5138 1
     260     3624     3626 1
     261     3462     3464 1
     262     4461     4463 1
     263     3975     3977 1
     264     6540     6542 1
     265     5379     5381 1
     266     5541     5543 1
     267     3057     3059 1
     268     8958     8960 1
     269     7365     7367 1
     270     8418     8420 1
     271     7041     7043 1
     272     3210     3211 1
     273     8598     8599 1
     274     9072     9074 1
     275     1187     1186 1
     276     9669     9670 1
     277     7752     7753 1
     278     9831     9832 1
     279     9750     9751 1
     280     4989     4990 1
     281     2301     2302 1
     282      355      356 1
     283     1791     1792 1
     284     1643     1644 1
     285     2176     2177 1
     286     2324     2325 1
     287      429      430 1
     288     4485     4487 1
     289     4242     4244 1
     290      925      926 1
     291     6321     6323 1
     292     4323     4325 1
     293      591      592 1
     294     8979     8981 1
     295     8736     8738 1
     296     8898     8900 1
     297     6900     6902 1
     298     1619     1620 1
     299     1545     1546 1
     300     6552     6554 1
     301     4446     4448 1
     302     6390     6392 1
     303     6525     6527 1
     304     8274     8276 1
     305     8814     8816 1
     306     5976     5978 1
     307     5733     5735 1
     308     5814     5816 1
     309     3897     3899 1
     310     5895     5897 1
     311     8796     8797 1
     312     8256     8257 1
     313     8622     8623 1
     314     6879     6880 1
     315     9162     9163 1
     316     9633     9634 1
     317      283      268 1
     318     2286     2287 1
     319     2104     2105 1
     320      543      544 1
     321      506      507 1
     322      694      693 1
     323      948      933 1
     324     9387     9389 1
     325     7551     7553 1
     326     7038     7040 1
     327     7389     7391 1
     328     8955     8957 1
     329     9036     9038 1
     330     9468     9470 1
     331     9225     9227 1
     332     7119     7121 1
     333     9198     9200 1
     334     2278     2279 1
     335      732      733 1
     336      621      622 1
     337      584      585 1
     338      954      955 1
     339      769      770 1
     340     1480     1481 1
     341     7569     7571 1
     342     7407     7409 1
     343     9135     9137 1
     344     9243     9245 1
     345     7299     7301 1
     346      860      861 1
     347      934      935 1
     348     9378     9380 1
     349     7218     7220 1
     350     9486     9488 1
     351     3873     3875 1
     352     5790     5792 1
     353     5682     5684 1
     354     3684     3686 1
     355     5709     5711 1
     356     5871     5873 1
     357     5952     5954 1
     358     5763     5765 1
     359      392      393 1
     360     3522     3524 1
     361     1856     1857 1
     362     2078     2079 1
     363     2115     2116 1
     364     8268     8270 1
     365     6891     6893 1
     366     8808     8810 1
     367     1901     1902 1
     368     3078     3080 1
     369     4491     4492 1
     370     6327     6328 1
     371     4248     4249 1
     372     1476     1477 1
     373     4329     4330 1
     374     1860     1845 1
     375     2511     2513 1
     376     7689     7691 1
     377     8688     8690 1
     378     7851     7853 1
     379     5994     5995 1
     380     5172     5174 1
     381     5853     5854 1
     382     9813     9815 1
     383     3774     3776 1
     384     4476     4478 1
     385     3936     3938 1
     386     4314     4316 1
     387      359      360 1
     388     1941     1942 1
     389     3645     3647 1
     390     4686     4687 1
     391      268      269 1
     392      314      315 1
     393     8535     8537 1
     394     5361     5362 1
     395     5523     5524 1
     396     5739     5740 1
     397      426      427 1
     398      463      464 1
     399      574      575 1
     400      275      276 1
     401      500      501 1
     402     4305     4306 1
     403     6303     6304 1
     404     4224     4225 1
     405      611      612 1
     406     1187     1188 1
     407     4467     4468 1
     408     2152     2153 1
     409     2207     2206 1
     410     1948     1947 1
     411     1967     1968 1
     412     1537     1538 1
     413     9642     9644 1
     414     8352     8353 1
     415     2205     2206 1
     416      681      682 1
     417     2502     2503 1
     418      987      988 1
     419     1996     1997 1
     420      264      265 1
     421     1898     1883 1
     422     8178     8180 1
     423     8097     8099 1
     424     8340     8342 1
     425     8802     8803 1
     426     8262     8263 1
     427     6885     6886 1
     428     1974     1975 1
     429     1004     1005 1
     430     6207     6209 1
     431     5586     5588 1
     432     5424     5426 1
     433     4047     4049 1
     434     3669     3671 1
     435     3966     3968 1
     436     2342     2341 1
     437      200      201 1
     438     1221     1222 1
     439      964      963 1
     440     7233     7234 1
     441     7071     7072 1
     442     6855     6856 1
     443     8772     8773 1
     444     3069     3070 1
     445     4905     4906 1
     446     2988     2989 1
     447     2907     2908 1
     448     9312     9313 1
     449      592      593 1
     450      555      556 1
     451     4206     4208 1
     452     8187     8189 1
     453     9186     9188 1
     454     8349     8351 1
     455     3429     3430 1
     456     5886     5887 1
     457     3888     3889 1
     458     5724     5725 1
     459     5508     5509 1
     460     1160     1161 1
     461     5265     5266 1
     462     2012     2013 1
     463     5967     5968 1
     464     5805     5806 1
     465     2274     2275 1
     466     2422     2423 1
     467     1470     1471 1
     468     2385     2386 1
     469     1997     1998 1
     470     2311     2312 1
     471     1507     1508 1
     472     1960     1961 1
     473     1322     1323 1
     474     1849     1850 1
     475      549      550 1
     476      639      640 1
     477      602      603 1
     478     2643     2644 1
     479     8382     8383 1
     480     8463     8464 1
     481      113      114 1
     482     6567     6568 1
     483     3723     3724 1
     484     3804     3805 1
     485     3453     3454 1
     486     3372     3373 1
     487     3615     3616 1
     488     5640     5641 1
     489     5559     5560 1
     490     3642     3643 1
     491     5532     5533 1
     492     5370     5371 1
     493     6048     6050 1
     494     5292     5294 1
     495     8130     8132 1
     496     2682     2683 1
     497     1449     1450 1
     498     9453     9455 1
     499      738      739 1
     500     3603     3604 1
     501      573      572 1
     502     3621     3623 1
     503     3216     3218 1
     504     5376     5378 1
     505     3459     3461 1
     506     3378     3380 1
     507     5538     5540 1
     508     8682     8684 1
     509     7710     7712 1
     510     7845     7847 1
     511     8871     8873 1
     512     7683     7685 1
     513     9789     9791 1
     514      123      124 1
     515       49       50 1
     516       86       87 1
     517      197      198 1
     518     8868     8870 1
     519     6870     6872 1
     520     8787     8789 1
     521     9837     9838 1
     522     9675     9676 1
     523     9756     9757 1
     524     7758     7759 1
     525     1447     1448 1
     526     2399     2400 1
     527     2066     2067 1
     528     2877     2879 1
     529     3375     3377 1
     530     2808     2810 1
     531     3024     3026 1
     532     8241     8242 1
     533     6453     6455 1
     534     4374     4376 1
     535     4536     4538 1
     536     8079     8080 1
     537    10077    10078 1
     538     6021     6023 1
     539     9996     9997 1
     540     9915     9916 1
     541     8160     8161 1
     542      288      289 1
     543     3768     3770 1
     544     6198     6199 1
     545      502      503 1
     546      576      577 1
     547      539      540 1
     548     9441     9443 1
     549     9279     9281 1
     550     7524     7526 1
     551      226      227 1
     552     1318     1319 1
     553     2421     2422 1
     554     2310     2311 1
     555     2384     2385 1
     556     1626     1627 1
     557     2273     2274 1
     558     5535     5536 1
     559     9234     9236 1
     560     9396     9398 1
     561     9477     9479 1
     562     7560     7562 1
     563     9639     9641 1
     564     7398     7400 1
     565     3090     3092 1
     566     3252     3254 1
     567     2820     2822 1
     568     6249     6251 1
     569     6087     6089 1
     570     6654     6656 1
     571     3981     3983 1
     572     3819     3821 1
     573     5331     5333 1
     574     1569     1570 1
     575     3222     3223 1
     576     3465     3466 1
     577     3627     3628 1
     578     3384     3385 1
     579     5544     5545 1
     580     5382     5383 1
     581     5463     5464 1
     582     2679     2681 1
     583     4299     4301 1
     584     4137     4139 1
     585     6378     6380 1
     586     5865     5867 1
     587     6027     6029 1
     588     3192     3194 1
     589     5298     5300 1
     590     3030     3032 1
     591     4110     4112 1
     592     4947     4949 1
     593     1761     1762 1
     594     8472     8474 1
     595     7932     7934 1
     596     5334     5336 1
     597     8760     8761 1
     598     6843     6844 1
     599     9246     9247 1
     600     9084     9085 1
     601     2323     2324 1
     602     2175     2176 1
     603     1990     1991 1
     604     2360     2361 1
     605      317      318 1
     606      280      281 1
     607     2625     2626 1
     608     2697     2698 1
     609     6348     6349 1
     610     4431     4432 1
     611     5268     5269 1
     612     3360     3361 1
     613     3147     3148 1
     614     5253     5254 1
     615     5496     5497 1
     616     1683     1684 1
     617     3417     3418 1
     618     5145     5146 1
     619     3309     3310 1
     620     4983     4984 1
     621     5064     5065 1
     622     6645     6647 1
     623     6483     6485 1
     624     6240     6242 1
     625     4647     4649 1
     626     4404     4406 1
     627      489      490 1
     628      748      749 1
     629     1207     1208 1
     630     8481     8483 1
     631     4800     4801 1
     632     4962     4963 1
     633     8211     8213 1
     634     2883     2884 1
     635     8292     8294 1
     636     5880     5881 1
     637     5718     5719 1
     638     6690     6691 1
     639     8400     8402 1
     640     2856     2857 1
     641     3882     3883 1
     642     7548     7550 1
     643     5850     5852 1
     644     4095     4097 1
     645     3015     3017 1
     646      341      342 1
     647     3177     3179 1
     648     4932     4934 1
     649      193      194 1
     650     6012     6014 1
     651     1785     1786 1
     652     8418     8419 1
     653     7083     7084 1
     654     9270     9271 1
     655     9108     9109 1
     656     9324     9325 1
     657     8784     8785 1
     658     7041     7042 1
     659     8958     8959 1
     660     7245     7246 1
     661     7365     7366 1
     662     1983     1984 1
     663     2057     2058 1
     664     7848     7849 1
     665     7686     7687 1
     666     7443     7444 1
     667     7605     7606 1
     668     9684     9685 1
     669     9522     9523 1
     670     8646     8647 1
     671     8457     8458 1
     672      854      855 1
     673     9828     9829 1
     674     7749     7750 1
     675     9666     9667 1
     676     9747     9748 1
     677     7119     7120 1
     678     3426     3428 1
     679     4020     4022 1
     680     4344     4346 1
     681     5505     5507 1
     682     5937     5939 1
     683     4182     4184 1
     684     2177     2178 1
     685      188      173 1
     686     2196     2197 1
     687     9798     9799 1
     688     7719     7720 1
     689      322      323 1
     690     7962     7963 1
     691     9879     9880 1
     692     6021     6022 1
     693     1047     1048 1
     694     7992     7994 1
     695     7911     7913 1
     696     7830     7832 1
     697      792      793 1
     698     1125     1126 1
     699      866      867 1
     700     1088     1089 1
     701      977      978 1
     702     9987     9989 1
     703      973      974 1
     704     7377     7379 1
     705     8970     8972 1
     706     7053     7055 1
     707     4752     4753 1
     708     6237     6238 1
     709     2835     2836 1
     710     2931     2933 1
     711     4767     4769 1
     712     5010     5012 1
     713     3915     3916 1
     714     3093     3095 1
     715     4644     4645 1
     716     5091     5093 1
     717     2769     2771 1
     718     2080     2081 1
     719     2191     2192 1
     720     2154     2155 1
     721     1932     1933 1
     722     2043     2044 1
     723     2228     2229 1
     724     1969     1970 1
     725     2006     2007 1
     726     6759     6760 1
     727       35       36 1
     728     8175     8177 1
     729     6771     6773 1
     730     8337     8339 1
     731     6933     6935 1
     732     9174     9176 1
     733     9606     9608 1
     734      525      526 1
     735     1132     1133 1
     736      217      218 1
     737      402      403 1
     738     1206     1207 1
     739     1169     1170 1
     740     7692     7693 1
     741     5667     5668 1
     742     4830     4831 1
     743     3750     3751 1
     744     3588     3589 1
     745     6747     6748 1
     746     5829     5830 1
     747     6585     6586 1
     748     8616     8617 1
     749     9156     9157 1
     750     5454     5456 1
     751      496      497 1
     752      924      925 1
     753     2466     2467 1
     754     2586     2587 1
     755     3945     3946 1
     756     6213     6214 1
     757     4053     4054 1
     758     3783     3784 1
     759     3864     3865 1
     760     1272     1273 1
     761     3972     3973 1
     762     1233     1218 1
     763     1002     1003 1
     764      537      538 1
     765      648      649 1
     766      241      242 1
     767      352      353 1
     768      800      801 1
     769      315      316 1
     770      389      390 1
     771     1076     1077 1
     772     6792     6794 1
     773     8709     8711 1
     774      905      906 1
     775      868      869 1
     776     8547     8549 1
     777     4947     4948 1
     778      154      155 1
     779      117      118 1
     780     1372     1373 1
     781     3960     3962 1
     782     6201     6203 1
     783     3663     3665 1
     784     5580     5582 1
     785     5418     5420 1
     786     4041     4043 1
     787     1081     1082 1
     788     4788     4790 1
     789     5139     5141 1
     790     3060     3062 1
     791     7689     7690 1
     792     8688     8689 1
     793     7851     7852 1
     794     7014     7015 1
     795     1601     1602 1
     796     1638     1639 1
     797     4590     4592 1
     798     4077     4079 1
     799     6156     6158 1
     800     6507     6509 1
     801     8424     8425 1
     802     8964     8965 1
     803     7371     7372 1
     804     7047     7048 1
     805     5028     5029 1
     806     2329     2328 1
     807      580      581 1
     808     1597     1598 1
     809     6627     6628 1
     810     2463     2464 1
     811     2317     2318 1
     812     7614     7616 1
     813     7452     7454 1
     814     8613     8615 1
     815     9693     9695 1
     816     9531     9533 1
     817     4575     4577 1
     818     6492     6494 1
     819     3036     3038 1
     820     5115     5117 1
     821     9024     9026 1
     822     7107     7109 1
     823     8862     8864 1
     824     9942     9944 1
     825     9780     9782 1
     826     8025     8027 1
     827     4356     4357 1
     828     3438     3439 1
     829     5517     5518 1
     830     2237     2238 1
     831     1473     1474 1
     832     2348     2349 1
     833     1618     1619 1
     834     1581     1582 1
     835     1285     1286 1
     836     2583     2585 1
     837     1544     1545 1
     838     4083     4085 1
     839     6162     6164 1
     840     7392     7394 1
     841       44       45 1
     842      895      896 1
     843      297      298 1
     844     1044     1045 1
     845     8439     8440 1
     846     2107     2092 1
     847     4962     4964 1
     848     5880     5882 1
     849     2856     2858 1
     850     2883     2885 1
     851     6717     6719 1
     852     6690     6692 1
     853     5691     5693 1
     854     5718     5720 1
     855     4800     4802 1
     856     4611     4613 1
     857     2209     2210 1
     858     2410     2411 1
     859      271      272 1
     860     2553     2554 1
     861     3714     3715 1
     862     5469     5470 1
     863     2796     2797 1
     864     4551     4552 1
     865     6306     6307 1
     866     5631     5632 1
     867     5307     5308 1
     868     4227     4228 1
     869     4845     4846 1
     870     4683     4684 1
     871     3117     3118 1
     872     4710     4711 1
     873     2955     2956 1
     874     1309     1310 1
     875     4260     4261 1
     876     7833     7835 1
     877     6744     6745 1
     878     2335     2336 1
     879     7995     7997 1
     880     4827     4828 1
     881     6177     6178 1
     882     6582     6583 1
     883     7914     7916 1
     884     1635     1636 1
     885     6066     6068 1
     886     5904     5906 1
     887     6147     6149 1
     888     4149     4151 1
     889     4068     4070 1
     890     7356     7358 1
     891      909      910 1
     892     9192     9194 1
     893     7113     7115 1
     894     9030     9032 1
     895     8949     8951 1
     896     7032     7034 1
     897     6951     6953 1
     898     8658     8659 1
     899     7173     7174 1
     900     8928     8929 1
     901     7011     7012 1
     902     9495     9496 1
     903     7578     7579 1
     904     7929     7930 1
     905     6774     6776 1
     906     6936     6938 1
     907     7476     7478 1
     908     1209     1210 1
     909     1494     1495 1
     910     1457     1458 1
     911     3912     3914 1
     912     5748     5750 1
     913     5991     5993 1
     914     1697     1698 1
     915     1888     1889 1
     916     1851     1852 1
     917     1660     1661 1
     918     2934     2935 1
     919     1479     1480 1
     920     6606     6607 1
     921     5013     5014 1
     922     2772     2773 1
     923     3852     3853 1
     924     8001     8003 1
     925      834      835 1
     926     7839     7841 1
     927     7920     7922 1
     928      708      707 1
     929      757      758 1
     930     8070     8071 1
     931     2379     2380 1
     932     1699     1700 1
     933     2439     2441 1
     934     1465     1466 1
     935        6        7 1
     936        3        4 1
     937     3591     3593 1
     938     5199     5201 1
     939     3282     3284 1
     940     5037     5039 1
     941     6117     6119 1
     942     4200     4202 1
     943     1084     1085 1
     944      970      971 1
     945     2529     2531 1
     946     1536     1537 1
     947     7530     7531 1
     948     2595     2596 1
     949     2475     2476 1
     950     2404     2405 1
     951     2751     2752 1
     952     4668     4669 1
     953     4506     4507 1
     954     6423     6424 1
     955     4884     4885 1
     956      130      131 1
     957     1322     1321 1
     958     1507     1506 1
     959     1614     1615 1
     960     1841     1826 1
     961     2187     2188 1
     962     1666     1667 1
     963      210      211 1
     964      230      231 1
     965      523      524 1
     966      671      672 1
     967       93       94 1
     968      933      934 1
     969     9735     9737 1
     970     9816     9818 1
     971     7737     7739 1
     972     9654     9656 1
     973      910      895 1
     974     8598     8600 1
     975      953      954 1
     976     3573     3575 1
     977     6003     6005 1
     978     3924     3926 1
     979      873      874 1
     980     5760     5762 1
     981     3492     3494 1
     982     3411     3413 1
     983     8472     8473 1
     984     7932     7933 1
     985      662      663 1
     986     2889     2890 1
     987     8295     8296 1
     988     8484     8485 1
     989        5        4 1
     990     4785     4786 1
     991     5568     5569 1
     992      890      891 1
     993       31       32 1
     994       68       69 1
     995      657      656 1
     996     1189     1190 1
     997      385      386 1
     998      348      349 1
     999      237      238 1
    1000     8712     8714 1
    1001     8550     8552 1
    1002     6795     6797 1
    1003     7308     7310 1
    1004     9144     9146 1
    1005     9063     9065 1
    1006     8631     8633 1
    1007     1024     1025 1
    1008     2424     2425 1
    1009     7146     7148 1
    1010     2607     2608 1
    1011     6129     6130 1
    1012     5049     5050 1
    1013     8622     8624 1
    1014      705      706 1
    1015     9162     9164 1
    1016      594      595 1
    1017       32       33 1
    1018       69       70 1
    1019     5979     5981 1
    1020     3900     3902 1
    1021     3387     3389 1
    1022     3549     3551 1
    1023     3468     3470 1
    1024     5736     5738 1
    1025     4125     4127 1
    1026     1314     1315 1
    1027      101      102 1
    1028       64       65 1
    1029     2664     2665 1
    1030     8448     8449 1
    1031      408      409 1
    1032      334      335 1
    1033      291      292 1
    1034     1123     1124 1
    1035     3207     3208 1
    1036     4260     4262 1
    1037     6177     6179 1
    1038     4827     4829 1
    1039     7518     7519 1
    1040     9273     9274 1
    1041     9435     9436 1
    1042     1716     1715 1
    1043     1679     1678 1
    1044     1790     1789 1
    1045     1605     1604 1
    1046     1568     1567 1
    1047     1753     1752 1
    1048     2523     2525 1
    1049     4026     4027 1
    1050     4107     4108 1
    1051     5943     5944 1
    1052     5862     5863 1
    1053     6024     6025 1
    1054     6375     6376 1
    1055     4134     4135 1
    1056     2433     2435 1
    1057     4296     4297 1
    1058     6132     6133 1
    1059     3360     3362 1
    1060     2186     2187 1
    1061     4173     4174 1
    1062     4011     4012 1
    1063     4389     4390 1
    1064     2136     2137 1
    1065      774      775 1
    1066     1951     1952 1
    1067     2247     2248 1
    1068      885      886 1
    1069     2062     2063 1
    1070     5268     5270 1
    1071     1988     1989 1
    1072     1914     1915 1
    1073     6348     6350 1
    1074     4431     4433 1
    1075     2658     2660 1
    1076     2610     2612 1
    1077     8265     8267 1
    1078     4584     4585 1
    1079     6501     6502 1
    1080     4665     4666 1
    1081     6420     6421 1
    1082     7347     7349 1
    1083     4503     4504 1
    1084     2748     2749 1
    1085     2460     2461 1
    1086      657      658 1
    1087     9621     9622 1
    1088     9714     9715 1
    1089     4122     4124 1
    1090     4203     4205 1
    1091     6120     6122 1
    1092     6363     6365 1
    1093     4284     4286 1
    1094     6039     6041 1
    1095     9606     9607 1
    1096      189      190 1
    1097     6933     6934 1
    1098     9174     9175 1
    1099     8175     8176 1
    1100     6771     6772 1
    1101     8337     8338 1
    1102      837      838 1
    1103     8442     8443 1
    1104     6903     6904 1
    1105     8982     8983 1
    1106     8880     8882 1
    1107     6882     6884 1
    1108     7482     7484 1
    1109     8799     8801 1
    1110     8478     8479 1
    1111     1834     1835 1
    1112        1        2 1
    1113     1854     1855 1
    1114     8853     8854 1
    1115      550      551 1
    1116     7098     7099 1
    1117      883      884 1
    1118     1031     1032 1
    1119     8691     8692 1
    1120     9015     9016 1
    1121      957      958 1
    1122      920      921 1
    1123     6858     6860 1
    1124     7776     7778 1
    1125     9855     9857 1
    1126     8775     8777 1
    1127      983      984 1
    1128    10017    10019 1
    1129     2598     2600 1
    1130     1208     1209 1
    1131      338      337 1
    1132     1099     1100 1
    1133     1020     1021 1
    1134      986      971 1
    1135     3996     3998 1
    1136     3201     3203 1
    1137     5442     5444 1
    1138     3903     3905 1
    1139     5982     5984 1
    1140     3363     3365 1
    1141     2354     2355 1
    1142     1655     1656 1
    1143     2505     2507 1
    1144     3921     3923 1
    1145     6000     6002 1
    1146     6432     6434 1
    1147     2760     2762 1
    1148     4677     4679 1
    1149     4515     4517 1
    1150      161      162 1
    1151     7905     7907 1
    1152     1265     1266 1
    1153     1650     1651 1
    1154     7824     7826 1
    1155     7986     7988 1
    1156     6759     6761 1
    1157     9555     9556 1
    1158     5526     5528 1
    1159     8139     8140 1
    1160     8220     8221 1
    1161     8058     8059 1
    1162     9975     9976 1
    1163     4722     4723 1
    1164     6639     6640 1
    1165     4803     4804 1
    1166     6477     6478 1
    1167     6720     6721 1
    1168     4641     4642 1
    1169     4398     4399 1
    1170     3129     3130 1
    1171     6234     6235 1
    1172     2967     2968 1
    1173      701      686 1
    1174      293      294 1
    1175     6711     6712 1
    1176     2184     2185 1
    1177     9543     9544 1
    1178      697      698 1
    1179      956      957 1
    1180     1030     1031 1
    1181      882      883 1
    1182      919      920 1
    1183     3945     3947 1
    1184     3972     3974 1
    1185     3783     3785 1
    1186     6213     6215 1
    1187     4053     4055 1
    1188     3864     3866 1
    1189     2047     2048 1
    1190      530      515 1
    1191     4833     4835 1
    1192     3906     3908 1
    1193     5742     5744 1
    1194     5985     5987 1
    1195     8463     8465 1
    1196     8382     8384 1
    1197      967      968 1
    1198      511      512 1
    1199     5922     5924 1
    1200     6165     6167 1
    1201     4167     4169 1
    1202     6084     6086 1
    1203     4086     4088 1
    1204     5400     5402 1
    1205     5319     5321 1
    1206     5238     5240 1
    1207     5022     5024 1
    1208     4779     4781 1
    1209     2240     2225 1
    1210     2781     2783 1
    1211     2943     2945 1
    1212     6615     6617 1
    1213     2222     2223 1
    1214     1880     1881 1
    1215     8181     8182 1
    1216     8343     8344 1
    1217     9180     9181 1
    1218     5028     5030 1
    1219     6906     6908 1
    1220      245      230 1
    1221     7767     7769 1
    1222     9657     9659 1
    1223    10008    10010 1
    1224     7740     7742 1
    1225     9846     9848 1
    1226     9738     9740 1
    1227     9819     9821 1
    1228     9603     9605 1
    1229     1747     1748 1
    1230     6579     6580 1
    1231     3744     3745 1
    1232     6741     6742 1
    1233     5823     5824 1
    1234     5661     5662 1
    1235     6399     6400 1
    1236     3582     3583 1
    1237     9837     9839 1
    1238     7758     7760 1
    1239     9675     9677 1
    1240     9756     9758 1
    1241      743      744 1
    1242       29       30 1
    1243       66       67 1
    1244     6330     6332 1
    1245     4413     4415 1
    1246     5250     5252 1
    1247     1874     1873 1
    1248     2158     2159 1
    1249     8160     8162 1
    1250     8079     8081 1
    1251    10077    10079 1
    1252     9996     9998 1
    1253     9915     9917 1
    1254     8241     8243 1
    1255     6219     6220 1
    1256     3789     3790 1
    1257     3870     3871 1
    1258     3951     3952 1
    1259     1769     1770 1
    1260     1732     1733 1
    1261     1695     1696 1
    1262     4059     4060 1
    1263     1547     1548 1
    1264     1658     1659 1
    1265     1621     1622 1
    1266      227      228 1
    1267     2922     2923 1
    1268     6678     6679 1
    1269     7176     7178 1
    1270     8148     8150 1
    1271     9903     9905 1
    1272    10065    10067 1
    1273     8556     8558 1
    1274     1973     1974 1
    1275     6603     6605 1
    1276     9303     9304 1
    1277     9546     9547 1
    1278     7629     7630 1
    1279     7791     7792 1
    1280     7224     7225 1
    1281     7467     7468 1
    1282     7062     7063 1
    1283     4584     4586 1
    1284     6501     6503 1
    1285     4665     4667 1
    1286     6420     6422 1
    1287     4503     4505 1
    1288     2748     2750 1
    1289     2454     2456 1
    1290     3456     3458 1
    1291     1958     1959 1
    1292     4578     4579 1
    1293     2742     2743 1
    1294     6495     6496 1
    1295      318      319 1
    1296     1680     1681 1
    1297     6414     6415 1
    1298     4659     4660 1
    1299     4497     4498 1
    1300     6195     6196 1
    1301     3657     3658 1
    1302     3954     3955 1
    1303     5412     5413 1
    1304     5574     5575 1
    1305     4035     4036 1
    1306      603      604 1
    1307     9801     9803 1
    1308     1508     1509 1
    1309     1323     1324 1
    1310     9102     9104 1
    1311     9264     9266 1
    1312     8778     8780 1
    1313     6861     6863 1
    1314     4449     4450 1
    1315     3072     3073 1
    1316     6528     6529 1
    1317     7077     7079 1
    1318     4368     4369 1
    1319     7239     7241 1
    1320     2991     2992 1
    1321     9054     9056 1
    1322      569      570 1
    1323     6843     6845 1
    1324     8760     8762 1
    1325     9084     9086 1
    1326     9246     9248 1
    1327     1751     1752 1
    1328     7782     7783 1
    1329     9861     9862 1
    1330     6864     6865 1
    1331     8781     8782 1
    1332    10023    10024 1
    1333      981      982 1
    1334      439      440 1
    1335     8154     8155 1
    1336    10071    10072 1
    1337     8235     8236 1
    1338     9990     9991 1
    1339     8073     8074 1
    1340     9909     9910 1
    1341     1713     1714 1
    1342     1306     1307 1
    1343     1454     1455 1
    1344      185      186 1
    1345     4776     4778 1
    1346     3939     3941 1
    1347     3777     3779 1
    1348     6762     6764 1
    1349     5553     5554 1
    1350     7125     7126 1
    1351      436      437 1
    1352     9204     9205 1
    1353     8961     8962 1
    1354     9042     9043 1
    1355     7368     7369 1
    1356     6963     6964 1
    1357     7044     7045 1
    1358     5859     5860 1
    1359     9108     9110 1
    1360     9270     9272 1
    1361     7245     7247 1
    1362     6867     6869 1
    1363     8784     8786 1
    1364      606      607 1
    1365     2622     2624 1
    1366     7083     7085 1
    1367     1199     1200 1
    1368     1201     1200 1
    1369     7386     7387 1
    1370     5043     5045 1
    1371     1659     1660 1
    1372     1733     1734 1
    1373     1696     1697 1
    1374     1548     1549 1
    1375     8457     8459 1
    1376     8646     8648 1
    1377      362      363 1
    1378     2151     2152 1
    1379     1966     1967 1
    1380     2225     2226 1
    1381     1892     1893 1
    1382     2188     2189 1
    1383     2673     2675 1
    1384     7692     7694 1
    1385     2499     2500 1
    1386     9111     9112 1
    1387     7194     7195 1
    1388     7275     7276 1
    1389     9354     9355 1
    1390     3345     3346 1
    1391     6180     6181 1
    1392     5100     5101 1
    1393     3507     3508 1
    1394     4263     4264 1
    1395     8751     8752 1
    1396     7590     7591 1
    1397     8913     8914 1
    1398       59       60 1
    1399     9507     9508 1
    1400     9894     9895 1
    1401     1080     1081 1
    1402     1194     1195 1
    1403     2179     2180 1
    1404     2706     2707 1
    1405     5565     5566 1
    1406     5646     5647 1
    1407     3648     3649 1
    1408     5484     5485 1
    1409     1842     1843 1
    1410     3729     3730 1
    1411     5925     5926 1
    1412     3810     3811 1
    1413      894      895 1
    1414      249      250 1
    1415     9897     9899 1
    1416     8142     8144 1
    1417     8250     8252 1
    1418    10059    10061 1
    1419     4299     4300 1
    1420     2985     2986 1
    1421     4443     4444 1
    1422     2346     2347 1
    1423     2309     2310 1
    1424     2263     2264 1
    1425     1335     1336 1
    1426      750      751 1
    1427      453      454 1
    1428     4275     4277 1
    1429     4842     4844 1
    1430     5112     5114 1
    1431     6192     6194 1
    1432     3519     3521 1
    1433     5679     5681 1
    1434     5841     5843 1
    1435     3762     3764 1
    1436      531      532 1
    1437     3357     3359 1
    1438      303      304 1
    1439       84       85 1
    1440     6642     6644 1
    1441     6183     6185 1
    1442     6588     6590 1
    1443     7971     7972 1
    1444     9888     9889 1
    1445     7269     7270 1
    1446     4401     4403 1
    1447     6480     6482 1
    1448     7431     7432 1
    1449     9348     9349 1
    1450     7350     7351 1
    1451     7728     7729 1
    1452     9807     9808 1
    1453     2916     2917 1
    1454      150      151 1
    1455     1602     1603 1
    1456     1639     1640 1
    1457     1340     1341 1
    1458     5568     5570 1
    1459     4785     4787 1
    1460     1750     1751 1
    1461     9951     9952 1
    1462     1711     1712 1
    1463     1483     1484 1
    1464     5934     5936 1
    1465     7254     7256 1
    1466    10089    10091 1
    1467     8496     8498 1
    1468     7416     7418 1
    1469     9333     9335 1
    1470      986      987 1
    1471     7938     7940 1
    1472     8937     8939 1
    1473     7182     7184 1
    1474     7020     7022 1
    1475     6384     6386 1
    1476     3279     3281 1
    1477     6546     6548 1
    1478     5034     5036 1
    1479     5196     5198 1
    1480      184      185 1
    1481       33       34 1
    1482       27       28 1
    1483      175      176 1
    1484      138      139 1
    1485       70       71 1
    1486     9963     9964 1
    1487       66       65 1
    1488     4839     4841 1
    1489     6648     6650 1
    1490     6756     6758 1
    1491     4407     4409 1
    1492     6486     6488 1
    1493     6594     6596 1
    1494     2496     2497 1
    1495     2616     2617 1
    1496       47       48 1
    1497     7743     7745 1
    1498     1980     1981 1
    1499     9822     9824 1
    1500     9741     9743 1
    1501     9660     9662 1
    1502     1940     1941 1
    1503     9114     9115 1
    1504      930      931 1
    1505     7197     7198 1
    1506     8196     8197 1
    1507     6285     6287 1
    1508     3072     3074 1
    1509     6528     6530 1
    1510     2991     2993 1
    1511     4908     4910 1
    1512     8706     8707 1
    1513     8625     8626 1
    1514     4530     4532 1
    1515     6447     6449 1
    1516     4449     4451 1
    1517     6789     6790 1
    1518     8544     8545 1
    1519     8301     8302 1
    1520     1605     1606 1
    1521     1790     1791 1
    1522     1716     1717 1
    1523     1568     1569 1
    1524     1531     1532 1
    1525       92       93 1
    1526     1220     1221 1
    1527     5079     5080 1
    1528     3162     3163 1
    1529     4701     4702 1
    1530     4863     4864 1
    1531     3324     3325 1
    1532     3009     3011 1
    1533     4605     4606 1
    1534     5874     5875 1
    1535     5712     5713 1
    1536     1375     1376 1
    1537     1486     1487 1
    1538     4794     4795 1
    1539     2364     2365 1
    1540     5685     5686 1
    1541     4170     4171 1
    1542     4134     4136 1
    1543     6375     6377 1
    1544     5520     5521 1
    1545     4107     4109 1
    1546     6024     6026 1
    1547     5358     5359 1
    1548     4026     4028 1
    1549     5862     5864 1
    1550     4008     4009 1
    1551     5943     5945 1
    1552     8022     8024 1
    1553     7941     7943 1
    1554     6150     6151 1
    1555     9939     9941 1
    1556     4341     4342 1
    1557     4719     4720 1
    1558     4071     4072 1
    1559     9777     9779 1
    1560      911      912 1
    1561     2355     2356 1
    1562     1101     1102 1
    1563     7905     7906 1
    1564     7986     7987 1
    1565     7824     7825 1
    1566     3132     3133 1
    1567     3525     3527 1
    1568     7998     7999 1
    1569     7917     7918 1
    1570     7836     7837 1
    1571     1575     1560 1
    1572     8934     8936 1
    1573     7017     7019 1
    1574      220      221 1
    1575      294      295 1
    1576      257      258 1
    1577     8610     8612 1
    1578     2700     2702 1
    1579     7179     7181 1
    1580       74       75 1
    1581     3342     3344 1
    1582     3204     3205 1
    1583      321      306 1
    1584     2069     2054 1
    1585     1851     1850 1
    1586      187      188 1
    1587     1811     1812 1
    1588     1891     1892 1
    1589     1737     1738 1
    1590     9663     9664 1
    1591     7746     7747 1
    1592     9744     9745 1
    1593     9825     9826 1
    1594     6453     6454 1
    1595      530      531 1
    1596     9558     9560 1
    1597     7533     7535 1
    1598      872      873 1
    1599      595      596 1
    1600     7803     7805 1
    1601     7641     7643 1
    1602      447      448 1
    1603     9288     9290 1
    1604      706      707 1
    1605     8070     8072 1
    1606    10068    10069 1
    1607     1890     1891 1
    1608     1911     1910 1
    1609     1985     1984 1
    1610     1656     1657 1
    1611     2059     2058 1
    1612     2096     2095 1
    1613     2170     2169 1
    1614     1574     1575 1
    1615     9567     9568 1
    1616      416      401 1
    1617     3795     3797 1
    1618     5388     5390 1
    1619     5550     5552 1
    1620     5226     5228 1
    1621     6549     6551 1
    1622     4308     4310 1
    1623     3633     3635 1
    1624     6387     6389 1
    1625     4470     4472 1
    1626     1442     1443 1
    1627     1584     1585 1
    1628     1436     1437 1
    1629     1399     1400 1
    1630     1325     1326 1
    1631     1362     1363 1
    1632     1510     1511 1
    1633     2017     2018 1
    1634     1946     1947 1
    1635     8310     8312 1
    1636     1909     1910 1
    1637     8634     8636 1
    1638     7530     7532 1
    1639     5478     5479 1
    1640     1708     1693 1
    1641      996      997 1
    1642     7329     7330 1
    1643     8247     8248 1
    1644     4614     4615 1
    1645     6693     6694 1
    1646     2859     2860 1
    1647     5289     5290 1
    1648     8805     8806 1
    1649     8886     8887 1
    1650     6888     6889 1
    1651      105      106 1
    1652      136      137 1
    1653     6291     6293 1
    1654     1270     1271 1
    1655     2514     2515 1
    1656     5475     5476 1
    1657     5460     5461 1
    1658     9372     9374 1
    1659     5592     5593 1
    1660     6510     6511 1
    1661     4593     4594 1
    1662     3675     3676 1
    1663     5430     5431 1
    1664      314      313 1
    1665     6522     6523 1
    1666     1446     1447 1
    1667     3771     3773 1
    1668     4770     4772 1
    1669     3933     3935 1
    1670     1290     1275 1
    1671      140      139 1
    1672      177      176 1
    1673     2130     2131 1
    1674      283      284 1
    1675     6327     6329 1
    1676     4248     4250 1
    1677     4491     4493 1
    1678     4329     4331 1
    1679     7353     7354 1
    1680     8148     8149 1
    1681    10065    10066 1
    1682     9903     9904 1
    1683     7392     7393 1
    1684     5874     5876 1
    1685      718      717 1
    1686      928      929 1
    1687     1328     1313 1
    1688      830      831 1
    1689     6447     6448 1
    1690     8316     8317 1
    1691     1642     1641 1
    1692     3333     3334 1
    1693     1897     1898 1
    1694     1599     1600 1
    1695     2329     2330 1
    1696     1343     1344 1
    1697      469      470 1
    1698      727      728 1
    1699      801      802 1
    1700      961      962 1
    1701      542      543 1
    1702      388      389 1
    1703      351      352 1
    1704     1555     1556 1
    1705      735      736 1
    1706     4635     4636 1
    1707     4392     4393 1
    1708      809      810 1
    1709      994      995 1
    1710     6633     6634 1
    1711      575      576 1
    1712     6228     6229 1
    1713     1059     1060 1
    1714      862      863 1
    1715      825      826 1
    1716      788      789 1
    1717      527      528 1
    1718      675      676 1
    1719      638      639 1
    1720      601      602 1
    1721    10098    10100 1
    1722     8505     8507 1
    1723     4224     4226 1
    1724     6303     6305 1
    1725      109      110 1
    1726      712      713 1
    1727     4467     4469 1
    1728     7557     7558 1
    1729     4305     4307 1
    1730     1705     1706 1
    1731     1779     1780 1
    1732     8295     8297 1
    1733     8484     8486 1
    1734      590      591 1
    1735     1403     1404 1
    1736     2871     2872 1
    1737     4626     4627 1
    1738     5166     5167 1
    1739     2003     2004 1
    1740     6705     6706 1
    1741     3249     3250 1
    1742     5004     5005 1
    1743        2        3 1
    1744     1675     1676 1
    1745     9876     9878 1
    1746     7257     7259 1
    1747     7419     7421 1
    1748     9336     9338 1
    1749     7338     7340 1
    1750     7716     7718 1
    1751     7959     7961 1
    1752      403      404 1
    1753     6678     6680 1
    1754     9795     9797 1
    1755     9033     9034 1
    1756     7116     7117 1
    1757     9195     9196 1
    1758     6954     6955 1
    1759     8655     8656 1
    1760     1557     1558 1
    1761     1309     1294 1
    1762     4341     4343 1
    1763     6150     6152 1
    1764     4071     4073 1
    1765      955      956 1
    1766      918      919 1
    1767      696      697 1
    1768     1029     1030 1
    1769      203      202 1
    1770     2300     2301 1
    1771      481      482 1
    1772     4254     4255 1
    1773     6171     6172 1
    1774     3930     3931 1
    1775     3768     3769 1
    1776      538      539 1
    1777     3306     3307 1
    1778     1077     1078 1
    1779     5061     5062 1
    1780     3225     3226 1
    1781      649      650 1
    1782     3144     3145 1
    1783     4980     4981 1
    1784     5142     5143 1
    1785     2161     2162 1
    1786     1320     1321 1
    1787     1437     1438 1
    1788     2235     2236 1
    1789     1394     1395 1
    1790     1283     1284 1
    1791     9498     9499 1
    1792     5688     5690 1
    1793     3528     3530 1
    1794     3690     3692 1
    1795     5715     5717 1
    1796     5958     5960 1
    1797     5769     5771 1
    1798     7518     7520 1
    1799     6351     6352 1
    1800     5607     5609 1
    1801     5796     5798 1
    1802     4974     4975 1
    1803     4434     4435 1
    1804     6729     6730 1
    1805     9273     9275 1
    1806      853      854 1
    1807     4812     4813 1
    1808     2733     2734 1
    1809     4221     4222 1
    1810     8766     8767 1
    1811     6984     6985 1
    1812     6822     6823 1
    1813     7065     7066 1
    1814     8199     8200 1
    1815     8577     8578 1
    1816     6849     6850 1
    1817     7227     7228 1
    1818     9306     9307 1
    1819     3471     3472 1
    1820    10050    10051 1
    1821     7890     7891 1
    1822     8052     8053 1
    1823     9969     9970 1
    1824     8133     8134 1
    1825     9726     9727 1
    1826     8124     8126 1
    1827     9717     9719 1
    1828     7881     7883 1
    1829    10041    10043 1
    1830     9960     9962 1
    1831     8043     8045 1
    1832     5559     5561 1
    1833     3372     3374 1
    1834     5640     5642 1
    1835     3453     3455 1
    1836     3210     3212 1
    1837     3615     3617 1
    1838     3723     3725 1
    1839     3804     3806 1
    1840     3642     3644 1
    1841     5532     5534 1
    1842     1592     1591 1
    1843     1777     1776 1
    1844     2002     2003 1
    1845     1808     1809 1
    1846     6909     6910 1
    1847     9096     9097 1
    1848     9258     9259 1
    1849      778      779 1
    1850     6498     6499 1
    1851     3042     3043 1
    1852     5121     5122 1
    1853     4581     4582 1
    1854     2277     2278 1
    1855     8988     8989 1
    1856     1385     1386 1
    1857      659      660 1
    1858      415      416 1
    1859     2015     2016 1
    1860     4995     4996 1
    1861     6225     6227 1
    1862      377      378 1
    1863     4092     4094 1
    1864     6009     6011 1
    1865     3240     3241 1
    1866     5157     5158 1
    1867     2126     2127 1
    1868     5076     5077 1
    1869     3159     3160 1
    1870     4632     4634 1
    1871      381      382 1
    1872     1764     1765 1
    1873     3600     3602 1
    1874     1594     1579 1
    1875     5634     5636 1
    1876     1203     1204 1
    1877     1129     1130 1
    1878      944      945 1
    1879     5235     5236 1
    1880     5397     5398 1
    1881     5316     5317 1
    1882     8319     8320 1
    1883     6807     6808 1
    1884     8643     8644 1
    1885     8562     8563 1
    1886     8724     8725 1
    1887     1119     1120 1
    1888      151      152 1
    1889     6372     6374 1
    1890      510      511 1
    1891     4377     4378 1
    1892     6456     6457 1
    1893     6294     6295 1
    1894     4539     4540 1
    1895     3441     3442 1
    1896      324      325 1
    1897     3648     3650 1
    1898     5484     5486 1
    1899     5646     5648 1
    1900     5565     5567 1
    1901     3729     3731 1
    1902     3810     3812 1
    1903     9006     9008 1
    1904     7089     7091 1
    1905     8844     8846 1
    1906     8925     8927 1
    1907     9465     9467 1
    1908     9222     9224 1
    1909      517      518 1
    1910     7170     7172 1
    1911     7008     7010 1
    1912     9384     9386 1
    1913     8220     8222 1
    1914     8058     8060 1
    1915     8139     8141 1
    1916     2670     2671 1
    1917     9894     9896 1
    1918     9975     9977 1
    1919    10056    10058 1
    1920     2550     2551 1
    1921     3384     3386 1
    1922     5382     5384 1
    1923     5544     5546 1
    1924     3627     3629 1
    1925     3465     3467 1
    1926     3222     3224 1
    1927     5463     5465 1
    1928     9660     9661 1
    1929     9822     9823 1
    1930     7743     7744 1
    1931     9741     9742 1
    1932     4806     4807 1
    1933     7755     7756 1
    1934     9834     9835 1
    1935     9672     9673 1
    1936     9753     9754 1
    1937      368      369 1
    1938     1408     1409 1
    1939     1867     1868 1
    1940      916      915 1
    1941     1608     1609 1
    1942     1903     1904 1
    1943     8985     8987 1
    1944     9129     9131 1
    1945     9645     9647 1
    1946       74       59 1
    1947     1925     1924 1
    1948     8091     8093 1
    1949     8334     8336 1
    1950     1666     1665 1
    1951     8172     8174 1
    1952     2190     2191 1
    1953     2227     2228 1
    1954     1593     1594 1
    1955     4338     4339 1
    1956     5499     5500 1
    1957     3420     3421 1
    1958     6831     6833 1
    1959     8586     8588 1
    1960     6993     6995 1
    1961     8829     8831 1
    1962     5652     5653 1
    1963     1289     1290 1
    1964     5058     5059 1
    1965     3654     3655 1
    1966     3816     3817 1
    1967     5301     5302 1
    1968     3303     3304 1
    1969     5220     5221 1
    1970     5490     5491 1
    1971     5571     5572 1
    1972     2520     2521 1
    1973      625      610 1
    1974     8409     8410 1
    1975     9570     9571 1
    1976     9408     9409 1
    1977      929      930 1
    1978     7653     7654 1
    1979     7491     7492 1
    1980     6957     6959 1
    1981     2838     2839 1
    1982     4755     4756 1
    1983     6672     6673 1
    1984     3999     4000 1
    1985     3837     3838 1
    1986      462      461 1
    1987      425      424 1
    1988     3741     3742 1
    1989     5658     5659 1
    1990     3822     3823 1
    1991     3984     3985 1
    1992     5820     5821 1
    1993     3579     3580 1
    1994      843      844 1
    1995     5628     5629 1
    1996     5079     5081 1
    1997     5466     5467 1
    1998     4701     4703 1
    1999     5547     5548 1
    2000     3792     3793 1
    2001     3162     3164 1
    2002     3324     3326 1
    2003     3630     3631 1
    2004     4863     4865 1
    2005     5067     5068 1
    2006     8697     8699 1
    2007     5232     5233 1
    2008     2937     2938 1
    2009     2357     2358 1
    2010     6609     6610 1
    2011     2775     2776 1
    2012     4773     4774 1
    2013     5394     5395 1
    2014     9075     9077 1
    2015     2129     2130 1
    2016     5313     5314 1
    2017     1110     1111 1
    2018     7386     7388 1
    2019     4743     4745 1
    2020     3987     3989 1
    2021     2826     2828 1
    2022     6660     6662 1
    2023     3825     3827 1
    2024       45       46 1
    2025     2526     2527 1
    2026     2478     2479 1
    2027     1023     1024 1
    2028     2718     2719 1
    2029     6921     6922 1
    2030     9594     9595 1
    2031     7515     7516 1
    2032     7677     7678 1
    2033     9432     9433 1
    2034     8634     8635 1
    2035     8310     8311 1
    2036     9000     9001 1
    2037     9792     9793 1
    2038     7956     7957 1
    2039     7713     7714 1
    2040     9873     9874 1
    2041     2050     2035 1
    2042     3174     3175 1
    2043     7206     7208 1
    2044      169      170 1
    2045     7287     7289 1
    2046     1184     1185 1
    2047     9123     9125 1
    2048     9366     9368 1
    2049     1531     1530 1
    2050     5169     5170 1
    2051     6249     6250 1
    2052     5829     5831 1
    2053     4830     4832 1
    2054     3750     3752 1
    2055     5667     5669 1
    2056     3588     3590 1
    2057     6585     6587 1
    2058     6747     6749 1
    2059     8043     8044 1
    2060     2083     2082 1
    2061     2046     2045 1
    2062     2148     2149 1
    2063     6471     6472 1
    2064     9636     9637 1
    2065     7152     7153 1
    2066     9393     9394 1
    2067      233      234 1
    2068     1252     1253 1
    2069     7314     7315 1
    2070     9069     9070 1
    2071     2676     2677 1
    2072     9231     9232 1
    2073     7395     7396 1
    2074      344      345 1
    2075     9207     9209 1
    2076     7128     7130 1
    2077     6966     6968 1
    2078     9045     9047 1
    2079     8475     8477 1
    2080     8667     8669 1
    2081     3726     3727 1
    2082     1893     1894 1
    2083     2133     2132 1
    2084     6384     6385 1
    2085     7782     7784 1
    2086     9861     9863 1
    2087     8781     8783 1
    2088     6864     6866 1
    2089    10023    10025 1
    2090     2447     2445 1
    2091     1061     1062 1
    2092     5415     5417 1
    2093     3660     3662 1
    2094     5577     5579 1
    2095       89       88 1
    2096       77       78 1
    2097     7581     7583 1
    2098     9417     9419 1
    2099     7878     7880 1
    2100     7500     7502 1
    2101     8040     8042 1
    2102     7662     7664 1
    2103     8121     8123 1
    2104     9498     9500 1
    2105     9579     9581 1
    2106     9957     9959 1
    2107     5478     5480 1
    2108     8319     8321 1
    2109     1295     1296 1
    2110     7680     7681 1
    2111     7437     7438 1
    2112     7599     7600 1
    2113     9678     9679 1
    2114     9516     9517 1
    2115      782      783 1
    2116     4272     4273 1
    2117     7842     7843 1
    2118     7023     7024 1
    2119     8940     8941 1
    2120     8832     8833 1
    2121     7185     7186 1
    2122     5151     5152 1
    2123     1066     1067 1
    2124     5286     5287 1
    2125     9951     9953 1
    2126     1586     1587 1
    2127     1771     1772 1
    2128      876      877 1
    2129     1332     1333 1
    2130      839      840 1
    2131     4593     4595 1
    2132     6510     6512 1
    2133     5592     5594 1
    2134     3675     3677 1
    2135     5430     5432 1
    2136     8358     8360 1
    2137     8520     8522 1
    2138     7521     7523 1
    2139     9276     9278 1
    2140     9438     9440 1
    2141     1112     1113 1
    2142      157      158 1
    2143      194      195 1
    2144     1357     1358 1
    2145      654      655 1
    2146     3717     3719 1
    2147     3798     3800 1
    2148     3366     3368 1
    2149     5472     5474 1
    2150     5553     5555 1
    2151     3447     3449 1
    2152     7194     7196 1
    2153     6405     6406 1
    2154     4488     4489 1
    2155     3948     3949 1
    2156     4326     4327 1
    2157     7275     7277 1
    2158     3786     3787 1
    2159     6189     6190 1
    2160      739      740 1
    2161     2565     2566 1
    2162     3438     3440 1
    2163     4356     4358 1
    2164     5517     5519 1
    2165     9963     9965 1
    2166     7461     7462 1
    2167     7866     7867 1
    2168     7419     7420 1
    2169     7257     7258 1
    2170     7623     7624 1
    2171     9876     9877 1
    2172     9540     9541 1
    2173     9795     9796 1
    2174     9702     9703 1
    2175     9336     9337 1
    2176     1838     1839 1
    2177     1875     1876 1
    2178      679      680 1
    2179      713      714 1
    2180      676      677 1
    2181     8451     8452 1
    2182     8640     8641 1
    2183     1648     1649 1
    2184     1876     1877 1
    2185     1642     1643 1
    2186     1870     1871 1
    2187     2018     2019 1
    2188      308      309 1
    2189      234      235 1
    2190      345      346 1
    2191     9009     9011 1
    2192     7659     7661 1
    2193     7092     7094 1
    2194     8415     8417 1
    2195     8847     8849 1
    2196     7497     7499 1
    2197     9765     9767 1
    2198     9576     9578 1
    2199     9414     9416 1
    2200     8010     8012 1
    2201     2631     2632 1
    2202     2703     2704 1
    2203     1142     1143 1
    2204     5283     5284 1
    2205     1271     1272 1
    2206     1168     1169 1
    2207     1057     1058 1
    2208     1094     1095 1
    2209     1205     1206 1
    2210      287      288 1
    2211     1131     1132 1
    2212     4683     4685 1
    2213     4845     4847 1
    2214     4710     4712 1
    2215     3117     3119 1
    2216     2955     2957 1
    2217     3363     3364 1
    2218     7269     7271 1
    2219     9348     9350 1
    2220     7971     7973 1
    2221     7350     7352 1
    2222     7431     7433 1
    2223     7728     7730 1
    2224     9888     9890 1
    2225     9807     9809 1
    2226      104      105 1
    2227      178      179 1
    2228     5436     5437 1
    2229     6516     6517 1
    2230     3681     3682 1
    2231     1279     1280 1
    2232     4599     4600 1
    2233     2157     2158 1
    2234     5598     5599 1
    2235     1353     1354 1
    2236     9426     9428 1
    2237     1936     1921 1
    2238     8088     8089 1
    2239     6846     6847 1
    2240    10005    10006 1
    2241      246      247 1
    2242     9843     9844 1
    2243     9087     9088 1
    2244     7764     7765 1
    2245     1158     1159 1
    2246     9249     9250 1
    2247     8763     8764 1
    2248     5232     5234 1
    2249     4773     4775 1
    2250     2937     2939 1
    2251     6609     6611 1
    2252     5016     5018 1
    2253     5313     5315 1
    2254     2775     2777 1
    2255     5394     5396 1
    2256     1248     1249 1
    2257      473      474 1
    2258     1157     1142 1
    2259     1726     1727 1
    2260      354      355 1
    2261     2649     2650 1
    2262     1388     1389 1
    2263     4362     4363 1
    2264     4524     4525 1
    2265     4902     4903 1
    2266     1409     1410 1
    2267     6441     6442 1
    2268     2904     2905 1
    2269     2102     2103 1
    2270     2398     2399 1
    2271     4764     4765 1
    2272     3927     3928 1
    2273     2139     2140 1
    2274     3765     3766 1
    2275     1298     1299 1
    2276      597      596 1
    2277     2562     2564 1
    2278      758      743 1
    2279     2457     2458 1
    2280     6789     6791 1
    2281     3543     3544 1
    2282     4866     4867 1
    2283     8544     8546 1
    2284     8706     8708 1
    2285     4704     4705 1
    2286     8625     8627 1
    2287     3705     3706 1
    2288     8301     8303 1
    2289     5784     5785 1
    2290     5622     5623 1
    2291     3687     3689 1
    2292      814      815 1
    2293      244      245 1
    2294     9177     9179 1
    2295     8907     8909 1
    2296     8745     8747 1
    2297     7425     7426 1
    2298     7722     7723 1
    2299     7263     7264 1
    2300     7344     7345 1
    2301     7965     7966 1
    2302     9342     9343 1
    2303     9882     9883 1
    2304     9801     9802 1
    2305     1141     1142 1
    2306     1263     1264 1
    2307      879      878 1
    2308     1300     1301 1
    2309     4668     4670 1
    2310     4506     4508 1
    2311     6423     6425 1
    2312     2751     2753 1
    2313     4884     4886 1
    2314     5733     5734 1
    2315     2451     2453 1
    2316     1618     1617 1
    2317     3636     3637 1
    2318     9852     9853 1
    2319     9609     9610 1
    2320     7773     7774 1
    2321    10014    10015 1
    2322     3096     3097 1
    2323     6255     6256 1
    2324     5175     5176 1
    2325     5337     5338 1
    2326     3258     3259 1
    2327     2580     2581 1
    2328     1822     1823 1
    2329      412      413 1
    2330      560      561 1
    2331      637      638 1
    2332     1133     1134 1
    2333      487      488 1
    2334      440      441 1
    2335      218      219 1
    2336      709      710 1
    2337      820      821 1
    2338      746      747 1
    2339      783      784 1
    2340      598      599 1
    2341      367      368 1
    2342      330      331 1
    2343     2088     2073 1
    2344     2377     2378 1
    2345     7998     8000 1
    2346     7917     7919 1
    2347     7836     7838 1
    2348     2970     2971 1
    2349     4347     4348 1
    2350     4713     4715 1
    2351     5766     5768 1
    2352     5604     5606 1
    2353     4848     4850 1
    2354     3780     3781 1
    2355     4482     4483 1
    2356     2958     2960 1
    2357     5955     5957 1
    2358     3120     3122 1
    2359      254      255 1
    2360     2523     2524 1
    2361     9111     9113 1
    2362     7923     7924 1
    2363     7167     7168 1
    2364     8922     8923 1
    2365     7005     7006 1
    2366     4371     4372 1
    2367     6450     6451 1
    2368     4560     4561 1
    2369     2805     2806 1
    2370     6288     6289 1
    2371     6762     6763 1
    2372     4533     4534 1
    2373     8130     8131 1
    2374     7887     7888 1
    2375     9723     9724 1
    2376    10047    10048 1
    2377     7536     7537 1
    2378     8049     8050 1
    2379     9966     9967 1
    2380     9453     9454 1
    2381     9291     9292 1
    2382      240      241 1
    2383     1062     1047 1
    2384     1727     1712 1
    2385     2051     2052 1
    2386     1275     1276 1
    2387     4539     4541 1
    2388     4377     4379 1
    2389     6456     6458 1
    2390     6294     6296 1
    2391      674      675 1
    2392      600      601 1
    2393       83       84 1
    2394      120      121 1
    2395     1397     1398 1
    2396     1770     1771 1
    2397     1331     1332 1
    2398     1214     1199 1
    2399     7329     7331 1
    2400     8247     8249 1
    2401     2436     2437 1
    2402     8946     8947 1
    2403     7029     7030 1
    2404     7191     7192 1
    2405     8838     8839 1
    2406     1196     1197 1
    2407     1082     1083 1
    2408     8619     8620 1
    2409     7458     7459 1
    2410     7620     7621 1
    2411     9699     9700 1
    2412     9537     9538 1
    2413      562      563 1
    2414      673      674 1
    2415     5352     5353 1
    2416     1986     1987 1
    2417    10032    10033 1
    2418      459      460 1
    2419     1183     1184 1
    2420     1224     1225 1
    2421     8523     8525 1
    2422     8361     8363 1
    2423     8739     8741 1
    2424     8901     8903 1
    2425     2559     2560 1
    2426     4185     4186 1
    2427     8397     8399 1
    2428     7353     7355 1
    2429     7557     7559 1
    2430     2694     2696 1
    2431     1495     1496 1
    2432     2213     2214 1
    2433     2118     2119 1
    2434     1348     1349 1
    2435     4383     4384 1
    2436     4545     4546 1
    2437     6462     6463 1
    2438     6300     6301 1
    2439     3033     3034 1
    2440     3195     3196 1
    2441     4950     4951 1
    2442      493      494 1
    2443     9228     9230 1
    2444     9471     9473 1
    2445     2368     2369 1
    2446     8850     8852 1
    2447     2134     2135 1
    2448     7095     7097 1
    2449     1564     1565 1
    2450     2331     2332 1
    2451     1527     1528 1
    2452      290      289 1
    2453     2724     2725 1
    2454      821      822 1
    2455      784      785 1
    2456      599      600 1
    2457      593      594 1
    2458      556      557 1
    2459     7926     7927 1
    2460     4638     4639 1
    2461     8466     8467 1
    2462     9597     9598 1
    2463     8166     8167 1
    2464     7761     7762 1
    2465     8085     8086 1
    2466    10002    10003 1
    2467     9840     9841 1
    2468     8328     8329 1
    2469      579      580 1
    2470      764      765 1
    2471     4368     4370 1
    2472     5970     5971 1
    2473     5727     5728 1
    2474     5889     5890 1
    2475     5808     5809 1
    2476     3891     3892 1
    2477      240      239 1
    2478      499      498 1
    2479     1556     1541 1
    2480     4335     4336 1
    2481     6144     6145 1
    2482     4065     4066 1
    2483      546      547 1
    2484      842      843 1
    2485      583      584 1
    2486     2019     2020 1
    2487     1945     1946 1
    2488     1797     1798 1
    2489     2838     2840 1
    2490     4755     4757 1
    2491      620      621 1
    2492      768      769 1
    2493     3999     4001 1
    2494     6672     6674 1
    2495     3837     3839 1
    2496      100      101 1
    2497       63       64 1
    2498     1423     1424 1
    2499     7785     7786 1
    2500     1054     1055 1
    2501     3555     3557 1
    2502     3393     3395 1
    2503     3474     3476 1
    2504     9579     9580 1
    2505     7500     7501 1
    2506     9864     9865 1
    2507     8109     8110 1
    2508     7662     7663 1
    2509    10038    10039 1
    2510     8190     8191 1
    2511     7581     7582 1
    2512     8121     8122 1
    2513     7878     7879 1
    2514     9405     9407 1
    2515     2063     2064 1
    2516     1866     1867 1
    2517     1755     1756 1
    2518     1484     1485 1
    2519     2251     2252 1
    2520     9252     9253 1
    2521     8685     8686 1
    2522     9090     9091 1
    2523     1088     1087 1
    2524     7647     7648 1
    2525     9294     9295 1
    2526     9564     9565 1
    2527     7809     7810 1
    2528     9456     9457 1
    2529     7539     7540 1
    2530     1652     1653 1
    2531     8151     8153 1
    2532     9906     9908 1
    2533     8232     8234 1
    2534     8394     8396 1
    2535     1012     1013 1
    2536     8289     8290 1
    2537     7290     7291 1
    2538      901      902 1
    2539     2556     2558 1
    2540      938      939 1
    2541     9369     9370 1
    2542     1632     1633 1
    2543     2135     2136 1
    2544     2246     2247 1
    2545     1864     1865 1
    2546     5169     5171 1
    2547     4398     4400 1
    2548     2967     2969 1
    2549     6477     6479 1
    2550     6720     6722 1
    2551     4641     4643 1
    2552     4722     4724 1
    2553     4803     4805 1
    2554     6639     6641 1
    2555     3129     3131 1
    2556     6234     6236 1
    2557      359      344 1
    2558        7        8 1
    2559     7260     7261 1
    2560      892      893 1
    2561     8502     8503 1
    2562     7422     7423 1
    2563    10095    10096 1
    2564     9339     9340 1
    2565     9099     9101 1
    2566     8100     8102 1
    2567     9261     9263 1
    2568     2120     2121 1
    2569     7890     7892 1
    2570     9969     9971 1
    2571     8133     8135 1
    2572    10050    10052 1
    2573     8052     8054 1
    2574     9726     9728 1
    2575     3564     3565 1
    2576     5670     5671 1
    2577     3834     3835 1
    2578     3591     3592 1
    2579     6090     6092 1
    2580     3753     3754 1
    2581     5832     5833 1
    2582     3402     3403 1
    2583     3483     3484 1
    2584     3849     3851 1
    2585     6252     6254 1
    2586      116      117 1
    2587     1376     1377 1
    2588     1450     1451 1
    2589     1413     1414 1
    2590     1339     1340 1
    2591     6072     6073 1
    2592     4074     4075 1
    2593     6153     6154 1
    2594     5910     5911 1
    2595     4155     4156 1
    2596     7860     7861 1
    2597     7617     7618 1
    2598     7455     7456 1
    2599     7698     7699 1
    2600     9696     9697 1
    2601     9534     9535 1
    2602      624      625 1
    2603     1114     1115 1
    2604     2784     2785 1
    2605     4890     4891 1
    2606     6618     6619 1
    2607     5025     5026 1
    2608     2946     2947 1
    2609     3228     3230 1
    2610     1823     1824 1
    2611     2307     2308 1
    2612     1629     1630 1
    2613     2344     2345 1
    2614     1814     1815 1
    2615     1740     1741 1
    2616      134      135 1
    2617     1677     1678 1
    2618     2370     2371 1
    2619     1603     1604 1
    2620     1714     1715 1
    2621     2407     2408 1
    2622     2382     2383 1
    2623     1788     1789 1
    2624     1492     1493 1
    2625     1566     1567 1
    2626     1640     1641 1
    2627      140      141 1
    2628       89       90 1
    2629     1773     1774 1
    2630     1588     1589 1
    2631     1116     1117 1
    2632     6417     6419 1
    2633     4878     4880 1
    2634     4662     4664 1
    2635     4500     4502 1
    2636     2745     2747 1
    2637     1746     1731 1
    2638      165      166 1
    2639     3219     3220 1
    2640     4380     4381 1
    2641     4542     4543 1
    2642     6459     6460 1
    2643     6297     6298 1
    2644     4893     4894 1
    2645     4056     4057 1
    2646     1195     1196 1
    2647     3381     3382 1
    2648     4059     4061 1
    2649     3870     3872 1
    2650     3951     3953 1
    2651     3789     3791 1
    2652     6219     6221 1
    2653     3978     3980 1
    2654     8892     8893 1
    2655     6894     6895 1
    2656     8811     8812 1
    2657     4239     4240 1
    2658     5427     5429 1
    2659     3672     3674 1
    2660     5589     5591 1
    2661     8127     8128 1
    2662     7506     7507 1
    2663     7587     7588 1
    2664     7884     7885 1
    2665     8046     8047 1
    2666     4530     4531 1
    2667     7668     7669 1
    2668     9504     9505 1
    2669    10044    10045 1
    2670     9585     9586 1
    2671     3879     3880 1
    2672     5487     5488 1
    2673     5109     5110 1
    2674     2061     2062 1
    2675     1833     1834 1
    2676      173      174 1
    2677     1470     1469 1
    2678     2446     2445 1
    2679     2036     2037 1
    2680     7155     7157 1
    2681     7317     7319 1
    2682      831      832 1
    2683      979      980 1
    2684      441      442 1
    2685      478      479 1
    2686     1134     1135 1
    2687      857      858 1
    2688     1097     1098 1
    2689      597      598 1
    2690     3954     3956 1
    2691     5412     5414 1
    2692     4035     4037 1
    2693     3657     3659 1
    2694     6195     6197 1
    2695       23       24 1
    2696     5574     5576 1
    2697     2423     2424 1
    2698     1625     1626 1
    2699     2312     2313 1
    2700     9672     9674 1
    2701      131      132 1
    2702     7755     7757 1
    2703     9753     9755 1
    2704     9834     9836 1
    2705     6732     6733 1
    2706     2979     2980 1
    2707     4734     4735 1
    2708     3141     3142 1
    2709     2898     2899 1
    2710     4977     4978 1
    2711     4815     4816 1
    2712     2463     2465 1
    2713     2736     2737 1
    2714     6900     6901 1
    2715     8979     8980 1
    2716     8898     8899 1
    2717     8736     8737 1
    2718      474      475 1
    2719      245      246 1
    2720     2332     2333 1
    2721     2369     2370 1
    2722     1676     1677 1
    2723     1565     1566 1
    2724     1491     1492 1
    2725     2406     2407 1
    2726     5793     5794 1
    2727     7374     7376 1
    2728     6555     6556 1
    2729      923      924 1
    2730     7671     7673 1
    2731     3099     3100 1
    2732     3261     3262 1
    2733     6915     6917 1
    2734     8994     8996 1
    2735     3504     3505 1
    2736     9588     9590 1
    2737     5340     5341 1
    2738     5178     5179 1
    2739     5097     5098 1
    2740      660      661 1
    2741     9216     9218 1
    2742     2091     2092 1
    2743       79       78 1
    2744     6336     6338 1
    2745     4419     4421 1
    2746     5256     5258 1
    2747     9570     9572 1
    2748     8409     8411 1
    2749      339      340 1
    2750     9408     9410 1
    2751     7491     7493 1
    2752     7653     7655 1
    2753     2110     2111 1
    2754     2224     2225 1
    2755     9387     9388 1
    2756     7038     7039 1
    2757     7389     7390 1
    2758     9198     9199 1
    2759     6957     6958 1
    2760     9036     9037 1
    2761     8955     8956 1
    2762     9630     9631 1
    2763     9468     9469 1
    2764     9225     9226 1
    2765     7674     7675 1
    2766     9591     9592 1
    2767     8430     8431 1
    2768     9429     9430 1
    2769      398      399 1
    2770     7512     7513 1
    2771     8313     8315 1
    2772     7644     7646 1
    2773     1904     1905 1
    2774     3507     3509 1
    2775     3345     3347 1
    2776     5100     5102 1
    2777     4263     4265 1
    2778     6180     6182 1
    2779     2427     2426 1
    2780     1078     1079 1
    2781       58       59 1
    2782       73       74 1
    2783     2484     2485 1
    2784     8718     8719 1
    2785     8367     8368 1
    2786      316      317 1
    2787     2532     2533 1
    2788     8529     8530 1
    2789      242      243 1
    2790     4230     4231 1
    2791     4311     4312 1
    2792     8556     8557 1
    2793      390      391 1
    2794     6921     6923 1
    2795     7515     7517 1
    2796     6309     6310 1
    2797     9432     9434 1
    2798     7677     7679 1
    2799     9594     9596 1
    2800     9000     9002 1
    2801     8883     8885 1
    2802     2862     2863 1
    2803     6657     6659 1
    2804     6696     6697 1
    2805     4617     4618 1
    2806     4821     4823 1
    2807     2823     2825 1
    2808      248      249 1
    2809     1670     1671 1
    2810     4887     4888 1
    2811     4740     4742 1
    2812     6738     6740 1
    2813      321      322 1
    2814     5370     5372 1
    2815     1016     1017 1
    2816     9501     9502 1
    2817     2182     2183 1
    2818     2919     2920 1
    2819     4917     4918 1
    2820     3000     3001 1
    2821     3081     3082 1
    2822     1917     1918 1
    2823      536      535 1
    2824      666      667 1
    2825     9357     9359 1
    2826     8277     8279 1
    2827     7278     7280 1
    2828       43       44 1
    2829       80       81 1
    2830     6717     6718 1
    2831     7437     7439 1
    2832     7599     7601 1
    2833     9678     9680 1
    2834     9516     9518 1
    2835     7680     7682 1
    2836     7842     7844 1
    2837     1137     1138 1
    2838     9390     9391 1
    2839     9228     9229 1
    2840     7176     7177 1
    2841       75       76 1
    2842     8931     8932 1
    2843     8850     8851 1
    2844     7095     7096 1
    2845     7554     7555 1
    2846     6723     6724 1
    2847     9012     9013 1
    2848     1712     1713 1
    2849     7404     7405 1
    2850     9132     9133 1
    2851     7566     7567 1
    2852     9375     9376 1
    2853      740      741 1
    2854     7215     7216 1
    2855     7296     7297 1
    2856     9645     9646 1
    2857     9402     9403 1
    2858     9483     9484 1
    2859     3078     3079 1
    2860     1086     1087 1
    2861     2221     2222 1
    2862      827      828 1
    2863      238      239 1
    2864     6573     6574 1
    2865     1266     1267 1
    2866     2026     2027 1
    2867     1255     1256 1
    2868     2281     2282 1
    2869      850      851 1
    2870     1146     1147 1
    2871      998      999 1
    2872     9402     9404 1
    2873     5172     5173 1
    2874     3063     3064 1
    2875     1692     1693 1
    2876     1315     1316 1
    2877     1389     1390 1
    2878     4797     4798 1
    2879     4959     4960 1
    2880     4608     4609 1
    2881     2853     2854 1
    2882     6714     6715 1
    2883     6687     6688 1
    2884     2880     2881 1
    2885     7461     7463 1
    2886     7866     7868 1
    2887     9702     9704 1
    2888      332      333 1
    2889      221      222 1
    2890     7623     7625 1
    2891     9540     9542 1
    2892     7704     7706 1
    2893     4008     4010 1
    2894     5925     5927 1
    2895     5520     5522 1
    2896     4440     4442 1
    2897     5358     5360 1
    2898     3441     3443 1
    2899     6519     6521 1
    2900     4170     4172 1
    2901     3603     3605 1
    2902      476      477 1
    2903     2607     2609 1
    2904     6093     6094 1
    2905     1882     1883 1
    2906     9012     9014 1
    2907     9390     9392 1
    2908     2544     2545 1
    2909      516      517 1
    2910     8682     8683 1
    2911     7710     7711 1
    2912     7683     7684 1
    2913     7845     7846 1
    2914     8871     8872 1
    2915     9789     9790 1
    2916     3099     3101 1
    2917     3261     3263 1
    2918     5097     5099 1
    2919     8895     8896 1
    2920     3504     3506 1
    2921     8355     8356 1
    2922     8733     8734 1
    2923     5340     5342 1
    2924     8517     8518 1
    2925     5178     5180 1
    2926     6582     6584 1
    2927       96       97 1
    2928      884      885 1
    2929      773      774 1
    2930     1038     1039 1
    2931     9048     9050 1
    2932     2577     2578 1
    2933     5052     5053 1
    2934     5214     5215 1
    2935     3297     3298 1
    2936     1347     1348 1
    2937     1429     1430 1
    2938      444      445 1
    2939      306      307 1
    2940     6735     6736 1
    2941     5655     5656 1
    2942     3495     3496 1
    2943     5727     5729 1
    2944     6168     6169 1
    2945     4818     4819 1
    2946     5817     5818 1
    2947     3738     3739 1
    2948     3891     3893 1
    2949     5970     5972 1
    2950     5808     5810 1
    2951      103      104 1
    2952     2490     2492 1
    2953     9885     9887 1
    2954     6204     6205 1
    2955     7725     7727 1
    2956     3045     3046 1
    2957     3963     3964 1
    2958     7968     7970 1
    2959     5124     5125 1
    2960     3531     3532 1
    2961     9804     9806 1
    2962     9957     9958 1
    2963     5202     5204 1
    2964     5040     5042 1
    2965     3285     3287 1
    2966     5055     5056 1
    2967     5217     5218 1
    2968     4191     4192 1
    2969     4029     4030 1
    2970      154      153 1
    2971     2469     2470 1
    2972     5946     5947 1
    2973     3300     3301 1
    2974     2589     2590 1
    2975      397      398 1
    2976     1899     1900 1
    2977     6975     6976 1
    2978     8460     8461 1
    2979     8541     8542 1
    2980     8973     8974 1
    2981     8379     8380 1
    2982     7380     7381 1
    2983        5        6 1
    2984     9054     9055 1
    2985     9216     9217 1
    2986     7137     7138 1
    2987     1370     1371 1
    2988     1259     1260 1
    2989     9279     9280 1
    2990     7524     7525 1
    2991     9441     9442 1
    2992     8259     8261 1
    2993     7341     7343 1
    2994     9234     9235 1
    2995     9639     9640 1
    2996     9396     9397 1
    2997     9477     9478 1
    2998     7560     7561 1
    2999     7398     7399 1
    3000     4737     4738 1
    3001     2973     2975 1
    3002     4809     4811 1
    3003     4614     4616 1
    3004     6693     6695 1
    3005     2859     2861 1
    3006     5289     5291 1
    3007     5472     5473 1
    3008     5292     5293 1
    3009     1783     1784 1
    3010     7479     7481 1
    3011     7236     7238 1
    3012     7074     7076 1
    3013      302      303 1
    3014      635      636 1
    3015     9315     9317 1
    3016     1249     1250 1
    3017     1916     1917 1
    3018      833      834 1
    3019     1627     1628 1
    3020     1889     1890 1
    3021     2111     2112 1
    3022     1963     1964 1
    3023     1852     1853 1
    3024     1926     1927 1
    3025     2000     2001 1
    3026      199      200 1
    3027     1701     1702 1
    3028      742      743 1
    3029     2697     2699 1
    3030     2625     2627 1
    3031     8445     8447 1
    3032     5928     5929 1
    3033     3609     3611 1
    3034     2367     2368 1
    3035     4425     4426 1
    3036     6342     6343 1
    3037     5856     5857 1
    3038     6018     6019 1
    3039     3021     3022 1
    3040     3183     3184 1
    3041     4101     4102 1
    3042     5262     5263 1
    3043     4938     4939 1
    3044     8211     8212 1
    3045     8292     8293 1
    3046     8481     8482 1
    3047     8400     8401 1
    3048     2667     2669 1
    3049     2547     2549 1
    3050      587      572 1
    3051     5481     5483 1
    3052     2877     2878 1
    3053     2730     2731 1
    3054     2538     2539 1
    3055      852      853 1
    3056    10032    10034 1
    3057     6519     6520 1
    3058     1481     1482 1
    3059     1760     1761 1
    3060     1686     1687 1
    3061     1190     1191 1
    3062     2093     2094 1
    3063      504      505 1
    3064      467      468 1
    3065     2946     2948 1
    3066     2784     2786 1
    3067     6618     6620 1
    3068     4890     4892 1
    3069     5025     5027 1
    3070     7359     7361 1
    3071     7035     7037 1
    3072     8412     8414 1
    3073     8952     8954 1
    3074       97       98 1
    3075     6054     6056 1
    3076     1816     1817 1
    3077     1742     1743 1
    3078     2038     2039 1
    3079     4257     4259 1
    3080     6174     6176 1
    3081     3339     3341 1
    3082     5094     5096 1
    3083     3501     3503 1
    3084     2202     2187 1
    3085     7167     7169 1
    3086     7005     7007 1
    3087     8922     8924 1
    3088     7923     7925 1
    3089       17       18 1
    3090     2871     2873 1
    3091     4626     4628 1
    3092     5166     5168 1
    3093     6705     6707 1
    3094     5004     5006 1
    3095     3249     3251 1
    3096      700      701 1
    3097     3861     3863 1
    3098     6345     6347 1
    3099     6723     6725 1
    3100     4239     4241 1
    3101     4968     4970 1
    3102     4428     4430 1
    3103     6318     6320 1
    3104     4806     4808 1
    3105     2889     2891 1
    3106     7911     7912 1
    3107     7992     7993 1
    3108     7830     7831 1
    3109     1228     1229 1
    3110     1404     1405 1
    3111     5820     5822 1
    3112     5487     5489 1
    3113      910      911 1
    3114     7470     7472 1
    3115     6768     6770 1
    3116     8280     8282 1
    3117      340      341 1
    3118     6930     6932 1
    3119     8820     8822 1
    3120     1861     1862 1
    3121     2050     2051 1
    3122      914      915 1
    3123     7029     7031 1
    3124     7191     7193 1
    3125     8946     8948 1
    3126     7395     7397 1
    3127     1211     1212 1
    3128      715      716 1
    3129      641      642 1
    3130     8838     8840 1
    3131      720      721 1
    3132     3144     3146 1
    3133     3306     3308 1
    3134     5061     5063 1
    3135     3225     3227 1
    3136     5142     5144 1
    3137     4980     4982 1
    3138     1073     1074 1
    3139     1458     1459 1
    3140     7620     7622 1
    3141     8619     8621 1
    3142     7458     7460 1
    3143     9699     9701 1
    3144     9537     9539 1
    3145     4896     4897 1
    3146     6624     6625 1
    3147     5031     5032 1
    3148     2952     2953 1
    3149     2790     2791 1
    3150     4812     4814 1
    3151     6351     6353 1
    3152     2895     2897 1
    3153     4434     4436 1
    3154     2733     2735 1
    3155     6729     6731 1
    3156     4974     4976 1
    3157     7554     7556 1
    3158     9147     9149 1
    3159     7311     7313 1
    3160     7149     7151 1
    3161     9066     9068 1
    3162     3498     3500 1
    3163     8547     8548 1
    3164     8709     8710 1
    3165     6792     6793 1
    3166      739      724 1
    3167     1537     1522 1
    3168     3963     3965 1
    3169     6204     6206 1
    3170     3045     3047 1
    3171     5124     5126 1
    3172     1043     1044 1
    3173      842      841 1
    3174     1377     1378 1
    3175     5562     5564 1
    3176     1232     1233 1
    3177     2481     2482 1
    3178     2721     2722 1
    3179     1845     1846 1
    3180     3957     3958 1
    3181     5118     5119 1
    3182     3039     3040 1
    3183     1144     1145 1
    3184      802      803 1
    3185     1181     1182 1
    3186      728      729 1
    3187     1191     1192 1
    3188     4656     4657 1
    3189     6411     6412 1
    3190     4872     4873 1
    3191     4494     4495 1
    3192      765      766 1
    3193     2739     2740 1
    3194     8184     8186 1
    3195     4098     4099 1
    3196     3909     3910 1
    3197     6231     6232 1
    3198     3369     3370 1
    3199    10020    10022 1
    3200     9615     9617 1
    3201     9858     9860 1
    3202     8346     8348 1
    3203     8103     8105 1
    3204     6015     6016 1
    3205     9840     9842 1
    3206     5919     5920 1
    3207     8085     8087 1
    3208     6081     6082 1
    3209     9597     9599 1
    3210     8166     8168 1
    3211     7761     7763 1
    3212     4164     4165 1
    3213    10002    10004 1
    3214     8328     8330 1
    3215      207      192 1
    3216     2054     2055 1
    3217     2103     2104 1
    3218     2060     2061 1
    3219     1906     1907 1
    3220      897      898 1
    3221     7485     7486 1
    3222     9321     9322 1
    3223     7242     7243 1
    3224     7080     7081 1
    3225     2652     2654 1
    3226     7800     7802 1
    3227     9555     9557 1
    3228     9285     9287 1
    3229     2604     2606 1
    3230     7452     7453 1
    3231     7614     7615 1
    3232     9531     9532 1
    3233     8613     8614 1
    3234     7638     7640 1
    3235     9693     9694 1
    3236      434      435 1
    3237     1257     1258 1
    3238     5397     5399 1
    3239     5235     5237 1
    3240     5316     5318 1
    3241      651      652 1
    3242      112       97 1
    3243      172      173 1
    3244     2411     2396 1
    3245     2508     2509 1
    3246     9582     9583 1
    3247     7665     7666 1
    3248     8421     8422 1
    3249     6552     6553 1
    3250     4446     4447 1
    3251     7503     7504 1
    3252     9420     9421 1
    3253     6390     6391 1
    3254     5454     5455 1
    3255     6525     6526 1
    3256     7785     7787 1
    3257    10026    10028 1
    3258     9621     9623 1
    3259     8190     8192 1
    3260     9864     9866 1
    3261     8109     8111 1
    3262     8352     8354 1
    3263      492      493 1
    3264     9564     9566 1
    3265     7647     7649 1
    3266     9456     9458 1
    3267     9294     9296 1
    3268     7539     7541 1
    3269     7809     7811 1
    3270     6333     6335 1
    3271     4416     4418 1
    3272     6063     6065 1
    3273     5901     5903 1
    3274     4146     4148 1
    3275     2231     2232 1
    3276     2083     2084 1
    3277     1427     1428 1
    3278     1390     1391 1
    3279     2194     2195 1
    3280     1316     1317 1
    3281     2046     2047 1
    3282     1242     1243 1
    3283     2009     2010 1
    3284     2268     2269 1
    3285     2553     2555 1
    3286      122      123 1
    3287      721      722 1
    3288      442      443 1
    3289      405      406 1
    3290     1081     1066 1
    3291     6978     6979 1
    3292     6816     6817 1
    3293     8193     8194 1
    3294     8571     8572 1
    3295     4911     4912 1
    3296     2994     2995 1
    3297     3075     3076 1
    3298     2913     2914 1
    3299     7914     7915 1
    3300     7833     7834 1
    3301     7995     7996 1
    3302     4563     4565 1
    3303     9966     9968 1
    3304     6105     6106 1
    3305     5187     5188 1
    3306     3270     3271 1
    3307     5349     5350 1
    3308     1728     1729 1
    3309     3108     3109 1
    3310     6267     6268 1
    3311     1888     1887 1
    3312     1814     1813 1
    3313     1740     1739 1
    3314     3000     3002 1
    3315     3081     3083 1
    3316     2919     2921 1
    3317     4917     4919 1
    3318     7305     7307 1
    3319     7143     7145 1
    3320     7251     7253 1
    3321     9330     9332 1
    3322     7413     7415 1
    3323     7332     7334 1
    3324     9060     9062 1
    3325     9141     9143 1
    3326     1693     1694 1
    3327     1853     1854 1
    3328     2022     2021 1
    3329     1354     1355 1
    3330     3816     3818 1
    3331     3303     3305 1
    3332     5220     5222 1
    3333     5652     5654 1
    3334     5571     5573 1
    3335     5058     5060 1
    3336      417      418 1
    3337     5301     5303 1
    3338     3654     3656 1
    3339     5490     5492 1
    3340     8487     8488 1
    3341     8298     8299 1
    3342     8217     8218 1
    3343     8406     8407 1
    3344     1872     1873 1
    3345     1681     1682 1
    3346     2131     2132 1
    3347     3510     3512 1
    3348     5184     5186 1
    3349     4914     4916 1
    3350     2997     2999 1
    3351     3105     3107 1
    3352     5103     5105 1
    3353     3267     3269 1
    3354     5346     5348 1
    3355     8889     8890 1
    3356     3348     3350 1
    3357    10104    10105 1
    3358     8511     8512 1
    3359     3111     3112 1
    3360       36       37 1
    3361     3051     3052 1
    3362      305      306 1
    3363     2326     2327 1
    3364     2027     2028 1
    3365       25       26 1
    3366      179      180 1
    3367     6876     6878 1
    3368     8874     8876 1
    3369     8793     8795 1
    3370     6894     6896 1
    3371      375      376 1
    3372      785      786 1
    3373     8892     8894 1
    3374     8811     8813 1
    3375      563      564 1
    3376      822      823 1
    3377     3630     3632 1
    3378     3711     3713 1
    3379     5547     5549 1
    3380     3792     3794 1
    3381     5628     5630 1
    3382     5466     5468 1
    3383     1717     1718 1
    3384     3087     3088 1
    3385     6246     6247 1
    3386     2925     2926 1
    3387     3006     3007 1
    3388     6489     6490 1
    3389     4410     4411 1
    3390     6651     6652 1
    3391     4923     4924 1
    3392     4653     4654 1
    3393     2405     2406 1
    3394     8283     8285 1
    3395     7284     7286 1
    3396     9363     9365 1
    3397     2168     2169 1
    3398     1361     1362 1
    3399      755      754 1
    3400     7737     7738 1
    3401     9735     9736 1
    3402     9816     9817 1
    3403     9654     9655 1
    3404     4098     4100 1
    3405     3909     3911 1
    3406     6231     6233 1
    3407     3207     3209 1
    3408     6015     6017 1
    3409     3369     3371 1
    3410     5448     5450 1
    3411     5853     5855 1
    3412     4638     4640 1
    3413     5988     5990 1
    3414     2616     2618 1
    3415     2715     2717 1
    3416     6393     6394 1
    3417     5916     5917 1
    3418     4161     4162 1
    3419     6078     6079 1
    3420     4080     4081 1
    3421     6159     6160 1
    3422       20       21 1
    3423     1153     1154 1
    3424      279      280 1
    3425      772      773 1
    3426     3297     3299 1
    3427     5214     5216 1
    3428     4386     4387 1
    3429     4899     4900 1
    3430     2982     2983 1
    3431     5052     5054 1
    3432     2901     2902 1
    3433     6222     6223 1
    3434     1010     1011 1
    3435     1096     1097 1
    3436      899      900 1
    3437      106      107 1
    3438      143      144 1
    3439     2004     2005 1
    3440     6834     6836 1
    3441     8859     8861 1
    3442     9237     9239 1
    3443     6996     6998 1
    3444     7104     7106 1
    3445     9021     9023 1
    3446     8589     8591 1
    3447      455      456 1
    3448       52       51 1
    3449      163      162 1
    3450     2028     2029 1
    3451     8445     8446 1
    3452     8712     8713 1
    3453     9063     9064 1
    3454     8550     8551 1
    3455     9144     9145 1
    3456     8631     8632 1
    3457     6795     6796 1
    3458     7308     7309 1
    3459     7146     7147 1
    3460     2278     2263 1
    3461     9267     9268 1
    3462     9105     9106 1
    3463     8106     8107 1
    3464     1784     1769 1
    3465     1689     1674 1
    3466     2108     2109 1
    3467     7935     7937 1
    3468     7611     7613 1
    3469     7449     7451 1
    3470     9528     9530 1
    3471     8016     8018 1
    3472     7854     7856 1
    3473     9933     9935 1
    3474     1902     1903 1
    3475     9771     9773 1
    3476     9690     9692 1
    3477     4737     4739 1
    3478     1350     1351 1
    3479     7812     7814 1
    3480     8286     8287 1
    3481     8826     8827 1
    3482     8370     8372 1
    3483     8721     8723 1
    3484     8532     8534 1
    3485     6804     6806 1
    3486     8559     8561 1
    3487     3606     3607 1
    3488     1246     1247 1
    3489     1400     1401 1
    3490     1363     1364 1
    3491     7674     7676 1
    3492     8430     8432 1
    3493     7512     7514 1
    3494     9429     9431 1
    3495     9591     9593 1
    3496     1460     1461 1
    3497      302      287 1
    3498     3024     3025 1
    3499     4563     4564 1
    3500     3213     3214 1
    3501     3375     3376 1
    3502     6372     6373 1
    3503     4536     4537 1
    3504     2808     2809 1
    3505     4293     4294 1
    3506     6048     6049 1
    3507     3186     3187 1
    3508      856      857 1
    3509     1540     1541 1
    3510     6405     6407 1
    3511     4272     4274 1
    3512     4326     4328 1
    3513     3786     3788 1
    3514     4488     4490 1
    3515     6189     6191 1
    3516     2565     2567 1
    3517     3948     3950 1
    3518     6567     6569 1
    3519     7473     7475 1
    3520     7068     7070 1
    3521     7797     7799 1
    3522     9552     9554 1
    3523     7230     7232 1
    3524     2282     2283 1
    3525     7635     7637 1
    3526     9309     9311 1
    3527     1917     1902 1
    3528      482      483 1
    3529      260      261 1
    3530      630      631 1
    3531      445      446 1
    3532      371      372 1
    3533     5367     5368 1
    3534     9354     9356 1
    3535     7707     7708 1
    3536     9867     9868 1
    3537     7950     7951 1
    3538     9786     9787 1
    3539     4128     4129 1
    3540     4290     4291 1
    3541     6045     6046 1
    3542     3534     3535 1
    3543     3696     3697 1
    3544     5694     5695 1
    3545     6126     6127 1
    3546     5775     5776 1
    3547     5613     5614 1
    3548     6369     6370 1
    3549     8265     8266 1
    3550     7347     7348 1
    3551     2634     2635 1
    3552      396      397 1
    3553     1066     1065 1
    3554     1223     1224 1
    3555     5322     5323 1
    3556     5241     5242 1
    3557     5403     5404 1
    3558     2070     2071 1
    3559      432      433 1
    3560     1033     1034 1
    3561      959      960 1
    3562      922      923 1
    3563     2358     2359 1
    3564     2099     2100 1
    3565     2321     2322 1
    3566      848      849 1
    3567     2210     2211 1
    3568     1070     1071 1
    3569     9600     9602 1
    3570     6765     6767 1
    3571     9168     9170 1
    3572     6927     6929 1
    3573     2448     2450 1
    3574     8331     8333 1
    3575      203      204 1
    3576     8169     8171 1
    3577      160      161 1
    3578     5391     5393 1
    3579     5229     5231 1
    3580     5310     5312 1
    3581     6513     6514 1
    3582     4596     4597 1
    3583     5757     5758 1
    3584     5436     5438 1
    3585     3681     3683 1
    3586     4599     4601 1
    3587     5598     5600 1
    3588     6516     6518 1
    3589     9147     9148 1
    3590    10107    10108 1
    3591     9066     9067 1
    3592     8514     8515 1
    3593     8271     8272 1
    3594     7311     7312 1
    3595     1118     1119 1
    3596     7149     7150 1
    3597     1644     1645 1
    3598     1792     1793 1
    3599     2325     2326 1
    3600     1333     1334 1
    3601     5130     5132 1
    3602     4698     4700 1
    3603     4860     4862 1
    3604     6210     6212 1
    3605     5778     5780 1
    3606     3537     3539 1
    3607     5616     5618 1
    3608     3699     3701 1
    3609     3969     3971 1
    3610     3051     3053 1
    3611     1327     1328 1
    3612     3105     3106 1
    3613     1166     1167 1
    3614     9855     9856 1
    3615     8775     8776 1
    3616    10017    10018 1
    3617     7776     7777 1
    3618     6858     6859 1
    3619     1225     1226 1
    3620     1879     1864 1
    3621     1948     1949 1
    3622     5796     5797 1
    3623      617      618 1
    3624     1939     1940 1
    3625      382      383 1
    3626     6465     6466 1
    3627     7320     7322 1
    3628     3015     3016 1
    3629     4095     4096 1
    3630     4932     4933 1
    3631     3177     3178 1
    3632     5850     5851 1
    3633     6012     6013 1
    3634      554      555 1
    3635      250      251 1
    3636      213      214 1
    3637     4209     4210 1
    3638     4764     4766 1
    3639     3765     3767 1
    3640     3927     3929 1
    3641     5475     5477 1
    3642     2269     2270 1
    3643     1428     1429 1
    3644     2232     2233 1
    3645     1317     1318 1
    3646     9240     9242 1
    3647     7215     7217 1
    3648     7566     7568 1
    3649     7404     7406 1
    3650     9375     9377 1
    3651     7296     7298 1
    3652       98       99 1
    3653       61       62 1
    3654     9132     9134 1
    3655     2258     2259 1
    3656     5625     5626 1
    3657     5706     5707 1
    3658     3708     3709 1
    3659     5787     5788 1
    3660     2416     2417 1
    3661     3546     3547 1
    3662     1632     1617 1
    3663     2305     2306 1
    3664     3543     3545 1
    3665     4704     4706 1
    3666     4866     4868 1
    3667     5622     5624 1
    3668     3705     3707 1
    3669     5784     5786 1
    3670     8499     8501 1
    3671    10092    10094 1
    3672     8877     8879 1
    3673      526      527 1
    3674     1461     1446 1
    3675     1347     1332 1
    3676     1534     1535 1
    3677     1571     1572 1
    3678     1756     1757 1
    3679      916      917 1
    3680     1719     1720 1
    3681     3120     3121 1
    3682     1962     1963 1
    3683     1925     1926 1
    3684     1999     2000 1
    3685     3498     3499 1
    3686     2931     2932 1
    3687     5010     5011 1
    3688     3336     3337 1
    3689     5334     5335 1
    3690     2769     2770 1
    3691     3255     3256 1
    3692     3093     3094 1
    3693     5493     5494 1
    3694     5091     5092 1
    3695     3414     3415 1
    3696     4332     4333 1
    3697     1970     1971 1
    3698     2192     2193 1
    3699     1921     1922 1
    3700     2155     2156 1
    3701     2007     2008 1
    3702     4116     4117 1
    3703     8454     8456 1
    3704     3639     3640 1
    3705     9210     9212 1
    3706     5205     5206 1
    3707     3288     3289 1
    3708     5556     5557 1
    3709     5043     5044 1
    3710     1765     1766 1
    3711     1993     1994 1
    3712     8967     8969 1
    3713     6123     6124 1
    3714     4851     4853 1
    3715     3123     3125 1
    3716     4716     4718 1
    3717     2961     2963 1
    3718     4689     4691 1
    3719     8895     8897 1
    3720     8733     8735 1
    3721      286      287 1
    3722     5811     5812 1
    3723     5892     5893 1
    3724     5514     5515 1
    3725     8517     8519 1
    3726     8355     8357 1
    3727     3435     3436 1
    3728     5730     5731 1
    3729     3894     3895 1
    3730     7767     7768 1
    3731    10008    10009 1
    3732     7740     7741 1
    3733      903      902 1
    3734     9657     9658 1
    3735     1014     1013 1
    3736      940      939 1
    3737     1051     1050 1
    3738     9738     9739 1
    3739     9819     9820 1
    3740     6972     6973 1
    3741     7134     7135 1
    3742     9213     9214 1
    3743     9051     9052 1
    3744     3996     3997 1
    3745     2628     2630 1
    3746     7584     7586 1
    3747     8664     8666 1
    3748     9501     9503 1
    3749      776      777 1
    3750     3090     3091 1
    3751      142      143 1
    3752     4371     4373 1
    3753     6288     6290 1
    3754     6450     6452 1
    3755     4533     4535 1
    3756     4560     4562 1
    3757     2805     2807 1
    3758      815      800 1
    3759     5895     5896 1
    3760      388      387 1
    3761      351      350 1
    3762     1931     1932 1
    3763     1398     1399 1
    3764     1287     1288 1
    3765     2042     2043 1
    3766     2005     2006 1
    3767     8178     8179 1
    3768     8340     8341 1
    3769     8097     8098 1
    3770      849      850 1
    3771     6201     6202 1
    3772     3663     3664 1
    3773     3960     3961 1
    3774     1034     1035 1
    3775     5580     5581 1
    3776     5418     5419 1
    3777     4041     4042 1
    3778     8379     8381 1
    3779     7380     7382 1
    3780     8541     8543 1
    3781     8973     8975 1
    3782     7056     7058 1
    3783      640      641 1
    3784     7137     7139 1
    3785     8460     8462 1
    3786     6975     6977 1
    3787      301      302 1
    3788     2574     2576 1
    3789     3444     3445 1
    3790     1918     1919 1
    3791     4590     4591 1
    3792     3012     3014 1
    3793     4929     4931 1
    3794     3471     3473 1
    3795     3174     3176 1
    3796     3552     3554 1
    3797     6156     6157 1
    3798      704      705 1
    3799     4077     4078 1
    3800     6507     6508 1
    3801     3390     3392 1
    3802       29       28 1
    3803      131      116 1
    3804     1179     1180 1
    3805     1308     1309 1
    3806     2334     2335 1
    3807      891      892 1
    3808     1217     1218 1
    3809     2940     2941 1
    3810     5019     5020 1
    3811     3858     3859 1
    3812     6612     6613 1
    3813     2778     2779 1
    3814     9765     9766 1
    3815     1636     1637 1
    3816     7077     7078 1
    3817     6861     6862 1
    3818     9264     9265 1
    3819       71       72 1
    3820     8778     8779 1
    3821     7239     7240 1
    3822     9318     9319 1
    3823     9102     9103 1
    3824     2194     2193 1
    3825      966      967 1
    3826     2120     2119 1
    3827     2379     2378 1
    3828     2009     2008 1
    3829     1500     1501 1
    3830      270      271 1
    3831     1145     1146 1
    3832     3270     3272 1
    3833     5349     5351 1
    3834     3108     3110 1
    3835     6105     6107 1
    3836      384      385 1
    3837     5187     5189 1
    3838     8385     8387 1
    3839     9924     9926 1
    3840     6267     6269 1
    3841     7716     7717 1
    3842     9762     9764 1
    3843     8007     8009 1
    3844    10044    10046 1
    3845     4383     4385 1
    3846     4545     4547 1
    3847     6462     6464 1
    3848     6300     6302 1
    3849     1768     1769 1
    3850     3195     3197 1
    3851     3033     3035 1
    3852     4950     4952 1
    3853     7284     7285 1
    3854     8283     8284 1
    3855     3735     3736 1
    3856     9363     9364 1
    3857      170      171 1
    3858     7944     7945 1
    3859     8943     8944 1
    3860     7188     7189 1
    3861     7026     7027 1
    3862     1766     1767 1
    3863      457      458 1
    3864     4251     4252 1
    3865     5889     5891 1
    3866     3111     3113 1
    3867      658      659 1
    3868     6603     6604 1
    3869     4629     4630 1
    3870     9171     9173 1
    3871     8604     8606 1
    3872     1920     1921 1
    3873     1959     1960 1
    3874     1512     1513 1
    3875     2427     2428 1
    3876     2431     2432 1
    3877     2535     2536 1
    3878     4149     4150 1
    3879     4068     4069 1
    3880     6066     6067 1
    3881     5904     5905 1
    3882     6147     6148 1
    3883     1821     1822 1
    3884      758      759 1
    3885     8208     8210 1
    3886     7209     7211 1
    3887     2297     2298 1
    3888     9126     9128 1
    3889      671      670 1
    3890      523      522 1
    3891      634      633 1
    3892     3351     3353 1
    3893     1431     1432 1
    3894      107      108 1
    3895      144      145 1
    3896      181      182 1
    3897     8949     8950 1
    3898     9423     9424 1
    3899     1745     1746 1
    3900     4005     4006 1
    3901     1631     1632 1
    3902     3843     3844 1
    3903     6111     6112 1
    3904     5355     5356 1
    3905     4761     4762 1
    3906     5193     5194 1
    3907     6273     6274 1
    3908     3276     3277 1
    3909      121      122 1
    3910     8142     8143 1
    3911     8250     8251 1
    3912    10059    10060 1
    3913     9897     9898 1
    3914     6555     6557 1
    3915     6393     6395 1
    3916     3801     3803 1
    3917     8112     8113 1
    3918     7869     7870 1
    3919    10029    10030 1
    3920     9705     9706 1
    3921     5205     5207 1
    3922     3288     3290 1
    3923     5556     5558 1
    3924     8031     8032 1
    3925    10110    10111 1
    3926     9948     9949 1
    3927     1913     1914 1
    3928     1950     1951 1
    3929     1685     1686 1
    3930     1562     1563 1
    3931     1759     1760 1
    3932     2024     2025 1
    3933     1987     1988 1
    3934     1525     1526 1
    3935     2619     2621 1
    3936     2293     2294 1
    3937     1233     1234 1
    3938     3486     3487 1
    3939     3567     3568 1
    3940     3405     3406 1
    3941     2183     2168 1
    3942     1955     1940 1
    3943     2199     2200 1
    3944     5199     5200 1
    3945     3282     3283 1
    3946     6117     6118 1
    3947     5037     5038 1
    3948     4200     4201 1
    3949     4548     4549 1
    3950     6078     6080 1
    3951     4161     4163 1
    3952     4080     4082 1
    3953     6159     6161 1
    3954     2793     2794 1
    3955     5916     5918 1
    3956     5277     5278 1
    3957     6135     6136 1
    3958      796      781 1
    3959     8238     8240 1
    3960     9993     9995 1
    3961     4233     4234 1
    3962     6312     6313 1
    3963     8076     8078 1
    3964     8157     8159 1
    3965    10074    10076 1
    3966     1787     1788 1
    3967     9912     9914 1
    3968     2107     2108 1
    3969     3855     3856 1
    3970      480      481 1
    3971     2598     2599 1
    3972     2841     2842 1
    3973     4758     4759 1
    3974     6675     6676 1
    3975     2127     2128 1
    3976     6243     6244 1
    3977     4650     4651 1
    3978     2517     2518 1
    3979      225      226 1
    3980     7635     7636 1
    3981     7230     7231 1
    3982     8676     8677 1
    3983     8433     8434 1
    3984     7473     7474 1
    3985     7068     7069 1
    3986     7797     7798 1
    3987     9552     9553 1
    3988     9309     9310 1
    3989     2408     2409 1
    3990     2294     2295 1
    3991     3876     3878 1
    3992    10089    10090 1
    3993     7416     7417 1
    3994     7254     7255 1
    3995     9333     9334 1
    3996     5973     5974 1
    3997     8496     8497 1
    3998     2164     2149 1
    3999      898      899 1
    4000     1009     1010 1
    4001       55       56 1
    4002     8205     8207 1
    4003     6990     6992 1
    4004     7938     7939 1
    4005     8937     8938 1
    4006     6828     6830 1
    4007      861      862 1
    4008     7182     7183 1
    4009     7020     7021 1
    4010     1027     1028 1
    4011     1679     1680 1
    4012     1448     1449 1
    4013     1485     1486 1
    4014     5910     5912 1
    4015     4074     4076 1
    4016     6153     6155 1
    4017     6072     6074 1
    4018     4155     4157 1
    4019     9960     9961 1
    4020     1401     1402 1
    4021     1848     1849 1
    4022     1028     1029 1
    4023     1708     1709 1
    4024      917      918 1
    4025      782      781 1
    4026     3639     3641 1
    4027     7242     7244 1
    4028     7485     7487 1
    4029     9321     9323 1
    4030     7080     7082 1
    4031      605      606 1
    4032     4875     4877 1
    4033     4038     4040 1
    4034     3585     3586 1
    4035     4542     4544 1
    4036     4380     4382 1
    4037     6459     6461 1
    4038     6297     6299 1
    4039     4893     4895 1
    4040     5460     5462 1
    4041     3381     3383 1
    4042     4056     4058 1
    4043     3219     3221 1
    4044     9039     9041 1
    4045     7122     7124 1
    4046     6960     6962 1
    4047     9201     9203 1
    4048     8661     8663 1
    4049     1005     1006 1
    4050     8679     8680 1
    4051      805      804 1
    4052     7941     7942 1
    4053     8022     8023 1
    4054     9777     9778 1
    4055       62       63 1
    4056       99      100 1
    4057     9939     9940 1
    4058     3234     3235 1
    4059      724      725 1
    4060      465      466 1
    4061     1581     1580 1
    4062     1234     1235 1
    4063     1817     1818 1
    4064     1780     1781 1
    4065     2039     2040 1
    4066      269      270 1
    4067      232      233 1
    4068     1261     1262 1
    4069     5403     5405 1
    4070     5241     5243 1
    4071     5322     5324 1
    4072      329      330 1
    4073     7899     7901 1
    4074      366      367 1
    4075     7818     7820 1
    4076     7980     7982 1
    4077     2349     2350 1
    4078     4266     4268 1
    4079     4527     4529 1
    4080     4365     4367 1
    4081     2799     2801 1
    4082     4554     4556 1
    4083     6282     6284 1
    4084     6444     6446 1
    4085     6816     6818 1
    4086     5190     5191 1
    4087     3651     3652 1
    4088     3273     3274 1
    4089     8193     8195 1
    4090     6621     6622 1
    4091     2013     2014 1
    4092     2949     2950 1
    4093     5244     5245 1
    4094     2685     2686 1
    4095     2898     2900 1
    4096     3141     3143 1
    4097     4734     4736 1
    4098     2979     2981 1
    4099     6732     6734 1
    4100     4815     4817 1
    4101     4977     4979 1
    4102     2736     2738 1
    4103     8703     8704 1
    4104     7326     7327 1
    4105     8877     8878 1
    4106     8499     8500 1
    4107     7164     7165 1
    4108    10092    10093 1
    4109     9081     9082 1
    4110     2285     2286 1
    4111     9972     9973 1
    4112     2012     1997 1
    4113     7533     7534 1
    4114     7641     7642 1
    4115     9288     9289 1
    4116     9558     9559 1
    4117     9450     9451 1
    4118     7803     7804 1
    4119     5649     5650 1
    4120     1978     1979 1
    4121      509      508 1
    4122      620      619 1
    4123     3579     3581 1
    4124     7494     7495 1
    4125      610      611 1
    4126     1192     1193 1
    4127      499      500 1
    4128      720      705 1
    4129      573      574 1
    4130      274      275 1
    4131      264      249 1
    4132     2268     2267 1
    4133     2231     2230 1
    4134     1227     1228 1
    4135     7875     7877 1
    4136     8469     8471 1
    4137     8388     8390 1
    4138     8037     8039 1
    4139     9711     9713 1
    4140     2034     2035 1
    4141     9954     9956 1
    4142    10035    10037 1
    4143     1731     1732 1
    4144     8118     8120 1
    4145     4203     4204 1
    4146     4122     4123 1
    4147     6120     6121 1
    4148     6363     6364 1
    4149     6039     6040 1
    4150     4284     4285 1
    4151     8298     8300 1
    4152     8217     8219 1
    4153     8406     8408 1
    4154     8487     8489 1
    4155      524      525 1
    4156      672      673 1
    4157      450      451 1
    4158      413      414 1
    4159      427      428 1
    4160      561      562 1
    4161     1606     1607 1
    4162     5286     5288 1
    4163     4209     4211 1
    4164     1434     1435 1
    4165     1622     1623 1
    4166     1360     1361 1
    4167     8511     8513 1
    4168     8889     8891 1
    4169    10104    10106 1
    4170     5328     5329 1
    4171     5409     5410 1
    4172     5247     5248 1
    4173     1775     1776 1
    4174     1812     1813 1
    4175     1923     1924 1
    4176     1886     1887 1
    4177     2631     2633 1
    4178     1738     1739 1
    4179     2703     2705 1
    4180     7509     7511 1
    4181     1664     1665 1
    4182     1590     1591 1
    4183     7446     7448 1
    4184     9525     9527 1
    4185     8607     8609 1
    4186     7608     7610 1
    4187     9687     9689 1
    4188      711      712 1
    4189     1211     1210 1
    4190     1174     1173 1
    4191     2457     2459 1
    4192     8637     8638 1
    4193     4233     4235 1
    4194     6312     6314 1
    4195     3855     3857 1
    4196     2640     2642 1
    4197     2472     2474 1
    4198     5373     5375 1
    4199     1498     1499 1
    4200     9630     9632 1
    4201     1072     1073 1
    4202     5442     5443 1
    4203     3903     3904 1
    4204     3201     3202 1
    4205      383      384 1
    4206      962      963 1
    4207     1122     1123 1
    4208     1036     1037 1
    4209     1074     1075 1
    4210     5304     5305 1
    4211     5223     5224 1
    4212     5385     5386 1
    4213      840      841 1
    4214      888      889 1
    4215     2682     2684 1
    4216     1974     1959 1
    4217     2622     2623 1
    4218     1312     1313 1
    4219     1305     1306 1
    4220     1949     1950 1
    4221     1453     1454 1
    4222     1416     1417 1
    4223      710      711 1
    4224     7908     7910 1
    4225      747      748 1
    4226     7827     7829 1
    4227      488      489 1
    4228    10098    10099 1
    4229     8505     8506 1
    4230     8883     8884 1
    4231     7989     7991 1
    4232     4050     4051 1
    4233      347      348 1
    4234     2173     2174 1
    4235      927      926 1
    4236     1001     1000 1
    4237     1149     1148 1
    4238     7476     7477 1
    4239     6936     6937 1
    4240     6774     6775 1
    4241     2392     2393 1
    4242     3906     3907 1
    4243     5742     5743 1
    4244     5985     5986 1
    4245     1936     1937 1
    4246     6291     6292 1
    4247     4374     4375 1
    4248     2411     2412 1
    4249      373      374 1
    4250      484      485 1
    4251      299      300 1
    4252     7008     7009 1
    4253     8106     8108 1
    4254     9105     9107 1
    4255     9267     9269 1
    4256     1688     1689 1
    4257     5238     5239 1
    4258     4779     4780 1
    4259     5022     5023 1
    4260     2943     2944 1
    4261     6615     6616 1
    4262     2011     2012 1
    4263     5400     5401 1
    4264     5319     5320 1
    4265     2781     2782 1
    4266     1992     1993 1
    4267     1125     1124 1
    4268     5445     5447 1
    4269     6630     6631 1
    4270     9624     9625 1
    4271     9219     9220 1
    4272     9462     9463 1
    4273     2255     2254 1
    4274     9381     9382 1
    4275     7545     7546 1
    4276     7383     7384 1
    4277     2320     2321 1
    4278     2691     2693 1
    4279     4131     4133 1
    4280     4941     4943 1
    4281     1149     1150 1
    4282     2412     2413 1
    4283     1385     1370 1
    4284      520      521 1
    4285     8601     8603 1
    4286      557      558 1
    4287     7602     7604 1
    4288     7953     7955 1
    4289     7440     7442 1
    4290     6873     6875 1
    4291     9681     9683 1
    4292     9519     9521 1
    4293     8790     8792 1
    4294     7950     7952 1
    4295     7707     7709 1
    4296     9867     9869 1
    4297     9786     9788 1
    4298     8028     8029 1
    4299     7947     7948 1
    4300     9783     9784 1
    4301     9945     9946 1
    4302     1487     1488 1
    4303     3735     3737 1
    4304     4455     4457 1
    4305     5049     5051 1
    4306     6129     6131 1
    4307     4212     4214 1
    4308     6534     6536 1
    4309     7323     7324 1
    4310     3294     3296 1
    4311     4023     4025 1
    4312     5940     5942 1
    4313     5211     5213 1
    4314     7161     7162 1
    4315     9078     9079 1
    4316     9159     9160 1
    4317      211      212 1
    4318     6285     6286 1
    4319     8571     8573 1
    4320     5325     5326 1
    4321     2436     2438 1
    4322     2283     2284 1
    4323     4251     4253 1
    4324      964      965 1
    4325      810      811 1
    4326      995      996 1
    4327      736      737 1
    4328      796      797 1
    4329     7821     7823 1
    4330     7983     7985 1
    4331     7902     7904 1
    4332     2270     2271 1
    4333     2233     2234 1
    4334     2418     2419 1
    4335     1553     1554 1
    4336     1633     1634 1
    4337     8514     8516 1
    4338     8271     8273 1
    4339     1955     1956 1
    4340     1019     1020 1
    4341    10107    10109 1
    4342      458      459 1
    4343      177      178 1
    4344     6735     6737 1
    4345     5817     5819 1
    4346     5655     5657 1
    4347     3333     3335 1
    4348     6168     6170 1
    4349     4818     4820 1
    4350     3495     3497 1
    4351     6573     6575 1
    4352     3738     3740 1
    4353     3576     3578 1
    4354     1662     1663 1
    4355     1884     1885 1
    4356     6030     6031 1
    4357     5868     5869 1
    4358     4194     4195 1
    4359     4113     4114 1
    4360     4032     4033 1
    4361     1517     1518 1
    4362     5949     5950 1
    4363     2559     2561 1
    4364     2469     2471 1
    4365     5946     5948 1
    4366     3300     3302 1
    4367     5055     5057 1
    4368     2589     2591 1
    4369     5217     5219 1
    4370     4191     4193 1
    4371     4029     4031 1
    4372     6135     6137 1
    4373     4218     4220 1
    4374      379      380 1
    4375     2472     2473 1
    4376      607      608 1
    4377     8391     8393 1
    4378     9768     9770 1
    4379     9930     9932 1
    4380     8013     8015 1
    4381     2895     2896 1
    4382      331      332 1
    4383     3336     3338 1
    4384     7170     7171 1
    4385     9006     9007 1
    4386     8844     8845 1
    4387     8925     8926 1
    4388     7089     7090 1
    4389     9465     9466 1
    4390     9384     9385 1
    4391     9222     9223 1
    4392     2667     2668 1
    4393      702      703 1
    4394     2547     2548 1
    4395     6924     6925 1
    4396     9165     9166 1
    4397     1944     1945 1
    4398     1907     1908 1
    4399     1796     1797 1
    4400     2571     2573 1
    4401     6969     6971 1
    4402      655      656 1
    4403     3432     3433 1
    4404     5511     5512 1
    4405     4350     4351 1
    4406     4521     4522 1
    4407     1962     1961 1
    4408     2036     2035 1
    4409     2031     2032 1
    4410     1999     1998 1
    4411     1844     1845 1
    4412     1067     1068 1
    4413     3405     3407 1
    4414     3486     3488 1
    4415     3567     3569 1
    4416      942      943 1
    4417      982      983 1
    4418      212      213 1
    4419      335      336 1
    4420      409      410 1
    4421     1053     1054 1
    4422     2466     2468 1
    4423     2586     2588 1
    4424     1286     1287 1
    4425     6114     6115 1
    4426     7212     7214 1
    4427     7401     7403 1
    4428     4854     4855 1
    4429     5961     5962 1
    4430     3693     3694 1
    4431     7563     7565 1
    4432     9399     9401 1
    4433     7293     7295 1
    4434     5772     5773 1
    4435     4692     4693 1
    4436     2964     2965 1
    4437     4176     4178 1
    4438     4014     4016 1
    4439     5931     5933 1
    4440     6948     6949 1
    4441     9201     9202 1
    4442     7488     7489 1
    4443     6786     6787 1
    4444     9189     9190 1
    4445        8        9 1
    4446     7122     7123 1
    4447     9039     9040 1
    4448     6960     6961 1
    4449     8661     8662 1
    4450     8091     8092 1
    4451     5271     5272 1
    4452     8334     8335 1
    4453     8172     8173 1
    4454     7056     7057 1
    4455     8376     8377 1
    4456     8538     8539 1
    4457     6810     6811 1
    4458     8565     8566 1
    4459     8727     8728 1
    4460     1828     1829 1
    4461     6831     6832 1
    4462     8586     8587 1
    4463     6993     6994 1
    4464     8829     8830 1
    4465     7362     7363 1
    4466    10068    10070 1
    4467     1528     1529 1
    4468     3183     3185 1
    4469     4101     4103 1
    4470     6342     6344 1
    4471     6018     6020 1
    4472     4425     4427 1
    4473     5856     5858 1
    4474     3021     3023 1
    4475     5262     5264 1
    4476     4938     4940 1
    4477     1396     1395 1
    4478     1433     1432 1
    4479     5634     5635 1
    4480      501      502 1
    4481     8880     8881 1
    4482     6882     6883 1
    4483     8799     8800 1
    4484     6051     6052 1
    4485     6912     6914 1
    4486     8748     8750 1
    4487     8910     8912 1
    4488     8991     8993 1
    4489      678      679 1
    4490     1136     1135 1
    4491     9603     9604 1
    4492     6972     6974 1
    4493     7134     7136 1
    4494     9213     9215 1
    4495     9051     9053 1
    4496    10038    10040 1
    4497     1100     1085 1
    4498     6480     6481 1
    4499     6183     6184 1
    4500     4401     4402 1
    4501     6588     6589 1
    4502     6642     6643 1
    4503     4266     4267 1
    4504     5751     5752 1
    4505     2353     2354 1
    4506     6750     6751 1
    4507     4833     4834 1
    4508     1313     1314 1
    4509     1239     1240 1
    4510     2342     2343 1
    4511     1276     1277 1
    4512     6852     6854 1
    4513    10011    10013 1
    4514     8094     8096 1
    4515     9255     9257 1
    4516     7770     7772 1
    4517     9093     9095 1
    4518     8769     8771 1
    4519     9849     9851 1
    4520     2221     2206 1
    4521     1827     1826 1
    4522     2832     2833 1
    4523     4749     4750 1
    4524     3993     3994 1
    4525     6666     6667 1
    4526     3831     3832 1
    4527     2688     2690 1
    4528     8697     8698 1
    4529     7320     7321 1
    4530     9075     9076 1
    4531     7158     7159 1
    4532     3186     3188 1
    4533      231      232 1
    4534      881      882 1
    4535     1689     1690 1
    4536       94       95 1
    4537      235      236 1
    4538      762      763 1
    4539      309      310 1
    4540      272      273 1
    4541      353      354 1
    4542     1154     1155 1
    4543      420      421 1
    4544      346      347 1
    4545     8628     8630 1
    4546     8304     8306 1
    4547      183      184 1
    4548     3066     3067 1
    4549     9423     9425 1
    4550     6624     6626 1
    4551     5031     5033 1
    4552     4896     4898 1
    4553     2952     2954 1
    4554     2790     2792 1
    4555     8607     8608 1
    4556     7446     7447 1
    4557     7608     7609 1
    4558     9687     9688 1
    4559     9525     9526 1
    4560      267      268 1
    4561     5913     5915 1
    4562     2754     2756 1
    4563     6426     6428 1
    4564     4158     4160 1
    4565     6075     6077 1
    4566     4671     4673 1
    4567     4509     4511 1
    4568     9045     9046 1
    4569     7128     7129 1
    4570     6966     6967 1
    4571     9207     9208 1
    4572     8667     8668 1
    4573     1219     1220 1
    4574     2202     2203 1
    4575      682      683 1
    4576     1176     1161 1
    4577     1108     1109 1
    4578      435      420 1
    4579     2087     2088 1
    4580      698      699 1
    4581     9240     9241 1
    4582     8694     8696 1
    4583     7857     7859 1
    4584     7695     7697 1
    4585      410      411 1
    4586      632      633 1
    4587      336      337 1
    4588      558      559 1
    4589      669      670 1
    4590      521      522 1
    4591     4494     4496 1
    4592     6411     6413 1
    4593     4872     4874 1
    4594     4656     4658 1
    4595     2739     2741 1
    4596      614      615 1
    4597     8943     8945 1
    4598     7944     7946 1
    4599     7026     7028 1
    4600     7188     7190 1
    4601       30       31 1
    4602       67       68 1
    4603      147      148 1
    4604     2032     2033 1
    4605     6354     6355 1
    4606     4437     4438 1
    4607     5274     5275 1
    4608      196      197 1
    4609     4164     4166 1
    4610     5919     5921 1
    4611     6081     6083 1
    4612     1561     1562 1
    4613     1524     1525 1
    4614     2126     2111 1
    4615     9276     9277 1
    4616     8520     8521 1
    4617     8358     8359 1
    4618     7521     7522 1
    4619     9438     9439 1
    4620     4854     4856 1
    4621     3882     3884 1
    4622     5961     5963 1
    4623     5799     5801 1
    4624     4719     4721 1
    4625     3693     3695 1
    4626     4692     4694 1
    4627     3126     3128 1
    4628     5772     5774 1
    4629     3531     3533 1
    4630      815      816 1
    4631      112      113 1
    4632     1502     1503 1
    4633     2072     2073 1
    4634     5550     5551 1
    4635     3633     3634 1
    4636     5226     5227 1
    4637     4308     4309 1
    4638     5388     5389 1
    4639     3795     3796 1
    4640     6387     6388 1
    4641     4470     4471 1
    4642     6708     6709 1
    4643     2847     2848 1
    4644     4602     4603 1
    4645     4953     4954 1
    4646     6681     6682 1
    4647     4791     4792 1
    4648     2874     2875 1
    4649      258      259 1
    4650      692      693 1
    4651      295      296 1
    4652     1298     1297 1
    4653     8427     8429 1
    4654     6258     6259 1
    4655     8670     8672 1
    4656     2829     2830 1
    4657     6663     6664 1
    4658     4746     4747 1
    4659     6096     6097 1
    4660     5847     5849 1
    4661     1407     1408 1
    4662     4986     4988 1
    4663     3312     3314 1
    4664     3150     3152 1
    4665      797      798 1
    4666     3231     3233 1
    4667     5148     5150 1
    4668     9705     9707 1
    4669     7869     7871 1
    4670     8112     8114 1
    4671    10029    10031 1
    4672    10110    10112 1
    4673     9948     9950 1
    4674     8031     8033 1
    4675     7659     7660 1
    4676     7092     7093 1
    4677     8415     8416 1
    4678     8847     8848 1
    4679     7497     7498 1
    4680     9009     9010 1
    4681     9414     9415 1
    4682     9576     9577 1
    4683     8010     8011 1
    4684     9927     9928 1
    4685     6855     6857 1
    4686     7071     7073 1
    4687     7233     7235 1
    4688     8772     8774 1
    4689     9312     9314 1
    4690     5697     5698 1
    4691     2664     2666 1
    4692     4911     4913 1
    4693     3075     3077 1
    4694     2994     2996 1
    4695     2913     2915 1
    4696     1244     1245 1
    4697     4770     4771 1
    4698     3771     3772 1
    4699     1365     1366 1
    4700     3933     3934 1
    4701      443      444 1
    4702     8433     8435 1
    4703      369      370 1
    4704     8676     8678 1
    4705      643      644 1
    4706     1100     1101 1
    4707     2149     2150 1
    4708     6360     6362 1
    4709     4119     4121 1
    4710     5280     5282 1
    4711     4281     4283 1
    4712     6036     6038 1
    4713     1898     1899 1
    4714     2649     2651 1
    4715     2317     2316 1
    4716     2715     2716 1
    4717     3048     3049 1
    4718     6504     6505 1
    4719     4587     4588 1
    4720     5127     5128 1
    4721     2092     2093 1
    4722      404      405 1
    4723     4104     4106 1
    4724      282      283 1
    4725     2886     2887 1
    4726     7494     7496 1
    4727     1803     1804 1
    4728     2145     2146 1
    4729     3978     3979 1
    4730     8574     8576 1
    4731     1167     1168 1
    4732     6981     6983 1
    4733     6819     6821 1
    4734     8817     8819 1
    4735     1115     1116 1
    4736     9585     9587 1
    4737      166      167 1
    4738     5751     5753 1
    4739     2316     2301 1
    4740     8679     8681 1
    4741     2451     2452 1
    4742     6246     6248 1
    4743     4410     4412 1
    4744     2925     2927 1
    4745     2088     2089 1
    4746     6651     6653 1
    4747     6489     6491 1
    4748     3006     3008 1
    4749     3087     3089 1
    4750     4923     4925 1
    4751     4653     4655 1
    4752      206      207 1
    4753     8391     8392 1
    4754     9768     9769 1
    4755     9930     9931 1
    4756     8013     8014 1
    4757      968      969 1
    4758     8214     8215 1
    4759     8403     8404 1
    4760      907      908 1
    4761     5133     5135 1
    4762     1369     1370 1
    4763    10062    10064 1
    4764     8145     8147 1
    4765     9549     9551 1
    4766     8226     8228 1
    4767     8064     8066 1
    4768     7632     7634 1
    4769     9981     9983 1
    4770     7794     7796 1
    4771     9900     9902 1
    4772     2262     2263 1
    4773     2487     2488 1
    4774     2203     2204 1
    4775     2727     2728 1
    4776     3690     3691 1
    4777     5715     5716 1
    4778     5958     5959 1
    4779     2163     2164 1
    4780     5688     5689 1
    4781     5769     5770 1
    4782     5607     5608 1
    4783     7164     7166 1
    4784     7326     7328 1
    4785      948      949 1
    4786     9081     9083 1
    4787     8703     8705 1
    4788     2901     2903 1
    4789     4629     4631 1
    4790     6465     6467 1
    4791     6222     6224 1
    4792     6627     6629 1
    4793     4899     4901 1
    4794     4386     4388 1
    4795     2982     2984 1
    4796     3063     3065 1
    4797     2075     2076 1
    4798     2229     2230 1
    4799     1404     1389 1
    4800     2430     2415 1
    4801     5877     5879 1
    4802      835      836 1
    4803     8637     8639 1
    4804     1170     1171 1
    4805     6264     6265 1
    4806     4746     4748 1
    4807     2829     2831 1
    4808     6258     6260 1
    4809     6096     6098 1
    4810     7977     7978 1
    4811     7815     7816 1
    4812     1420     1419 1
    4813     6663     6665 1
    4814     7896     7897 1
    4815     1383     1382 1
    4816     6561     6563 1
    4817     3687     3688 1
    4818      277      278 1
    4819     8865     8867 1
    4820     2259     2260 1
    4821     1472     1473 1
    4822     1274     1275 1
    4823      296      297 1
    4824     4092     4093 1
    4825     6009     6010 1
    4826     6225     6226 1
    4827     1529     1530 1
    4828     1344     1345 1
    4829     1418     1419 1
    4830     5847     5848 1
    4831     1040     1041 1
    4832     4632     4633 1
    4833     5511     5513 1
    4834     3432     3434 1
    4835     1381     1382 1
    4836     4350     4352 1
    4837      146      147 1
    4838     8508     8510 1
    4839    10101    10103 1
    4840     5421     5422 1
    4841     7428     7430 1
    4842     5583     5584 1
    4843     3666     3667 1
    4844     7266     7268 1
    4845     9345     9347 1
    4846    10026    10027 1
    4847      755      756 1
    4848     1977     1978 1
    4849      567      568 1
    4850     7770     7771 1
    4851    10011    10012 1
    4852     6852     6853 1
    4853     9849     9850 1
    4854     8094     8095 1
    4855     9255     9256 1
    4856     9093     9094 1
    4857     8769     8770 1
    4858     8361     8362 1
    4859     8739     8740 1
    4860     8901     8902 1
    4861      327      326 1
    4862     8523     8524 1
    4863     1803     1788 1
    4864     9879     9881 1
    4865     7962     7964 1
    4866     7719     7721 1
    4867     9798     9800 1
    4868     8397     8398 1
    4869     6654     6655 1
    4870     3981     3982 1
    4871     4128     4130 1
    4872     6126     6128 1
    4873     5775     5777 1
    4874     5694     5696 1
    4875     3696     3698 1
    4876     3534     3536 1
    4877     6369     6371 1
    4878     6045     6047 1
    4879     5613     5615 1
    4880     4290     4292 1
    4881     2284     2285 1
    4882      691      692 1
    4883     1499     1484 1
    4884     2700     2701 1
    4885     8934     8935 1
    4886     8610     8611 1
    4887     7179     7180 1
    4888     7017     7018 1
    4889     6939     6941 1
    4890     6777     6779 1
    4891     9612     9614 1
    4892      327      328 1
    4893      515      516 1
    4894      290      291 1
    4895      364      365 1
    4896      174      175 1
    4897     2646     2648 1
    4898     7563     7564 1
    4899     1807     1808 1
    4900     2372     2373 1
    4901     5361     5363 1
    4902     5523     5525 1
    4903     5739     5741 1
    4904     3606     3608 1
    4905     3444     3446 1
    4906     1393     1394 1
    4907     2419     2420 1
    4908     1282     1283 1
    4909     1245     1246 1
    4910     2160     2161 1
    4911     2123     2124 1
    4912     1467     1468 1
    4913     2234     2235 1
    4914     2271     2272 1
    4915     1319     1320 1
    4916      159      160 1
    4917     6513     6515 1
    4918     4596     4598 1
    4919     5757     5759 1
    4920     3357     3358 1
    4921      949      950 1
    4922     2688     2689 1
    4923     2568     2569 1
    4924     2023     2024 1
    4925     2171     2172 1
    4926     8904     8906 1
    4927     2097     2098 1
    4928     1379     1380 1
    4929     8742     8744 1
    4930     2396     2397 1
    4931     1912     1913 1
    4932     1952     1953 1
    4933      158      159 1
    4934      777      778 1
    4935     6468     6469 1
    4936      811      812 1
    4937     9057     9058 1
    4938     7140     7141 1
    4939     7302     7303 1
    4940     9138     9139 1
    4941     3480     3481 1
    4942     3399     3400 1
    4943     5883     5884 1
    4944     5964     5965 1
    4945     3561     3562 1
    4946     5802     5803 1
    4947     3885     3886 1
    4948     5721     5722 1
    4949      207      208 1
    4950     1171     1172 1
    4951     4293     4295 1
    4952     2658     2659 1
    4953     2610     2611 1
    4954     4557     4558 1
    4955     2298     2299 1
    4956     1956     1957 1
    4957     2297     2282 1
    4958     6051     6053 1
    4959     2165     2166 1
    4960     2330     2331 1
    4961      694      695 1
    4962     1674     1675 1
    4963     1600     1601 1
    4964     1415     1416 1
    4965     1526     1527 1
    4966     1563     1564 1
    4967     1452     1453 1
    4968     2256     2257 1
    4969       93       78 1
    4970     9411     9413 1
    4971     8115     8117 1
    4972     7575     7577 1
    4973     8034     8036 1
    4974     7872     7874 1
    4975     9492     9494 1
    4976     9573     9575 1
    4977     7656     7658 1
    4978      449      448 1
    4979     9708     9710 1
    4980     4905     4907 1
    4981     2988     2990 1
    4982     2907     2909 1
    4983     3069     3071 1
    4984     9219     9221 1
    4985     9624     9626 1
    4986     9381     9383 1
    4987     7545     7547 1
    4988     7383     7385 1
    4989     9462     9464 1
    4990     3546     3548 1
    4991     5706     5708 1
    4992     5787     5789 1
    4993     5625     5627 1
    4994     3708     3710 1
    4995     9471     9472 1
    4996     5724     5726 1
    4997     5886     5888 1
    4998     5508     5510 1
    4999     3888     3890 1
    5000     3429     3431 1
    5001     5265     5267 1
    5002     5967     5969 1
    5003     5805     5807 1
    5004      479      480 1
    5005     8100     8101 1
    5006     9099     9100 1
    5007     9261     9262 1
    5008     3516     3517 1
    5009     2709     2710 1
    5010     2787     2788 1
    5011     1143     1144 1
    5012     7281     7283 1
    5013     1629     1628 1
    5014     7200     7202 1
    5015     8307     8309 1
    5016     9360     9362 1
    5017     9117     9119 1
    5018     1352     1353 1
    5019     1278     1279 1
    5020     1475     1476 1
    5021     1922     1923 1
    5022     1663     1664 1
    5023     1885     1886 1
    5024     1975     1976 1
    5025     2826     2827 1
    5026     1707     1708 1
    5027     4743     4744 1
    5028     3987     3988 1
    5029     6660     6661 1
    5030     3825     3826 1
    5031     7947     7949 1
    5032     9783     9785 1
    5033     2069     2070 1
    5034     8028     8030 1
    5035      903      904 1
    5036     1014     1015 1
    5037      940      941 1
    5038     1051     1052 1
    5039     9945     9947 1
    5040     1162     1163 1
    5041     3414     3416 1
    5042     4332     4334 1
    5043     5493     5495 1
    5044     5982     5983 1
    5045     5637     5639 1
    5046     1280     1281 1
    5047     1477     1478 1
    5048     7323     7325 1
    5049     7161     7163 1
    5050     9078     9080 1
    5051     9159     9161 1
    5052     2260     2261 1
    5053     2040     2041 1
    5054     2114     2115 1
    5055     2077     2078 1
    5056     1818     1819 1
    5057     1929     1930 1
    5058     1781     1782 1
    5059     1855     1856 1
    5060     2351     2352 1
    5061     5973     5975 1
    5062     5514     5516 1
    5063     3435     3437 1
    5064     5811     5813 1
    5065     5892     5894 1
    5066     5271     5273 1
    5067     2844     2845 1
    5068     2613     2615 1
    5069     5730     5732 1
    5070     3894     3896 1
    5071     2322     2323 1
    5072     8229     8231 1
    5073     8067     8069 1
    5074     2174     2175 1
    5075     9435     9437 1
    5076     2359     2360 1
    5077     9984     9986 1
    5078     1841     1842 1
    5079     6801     6802 1
    5080     1441     1442 1
    5081     3666     3668 1
    5082     5421     5423 1
    5083     5583     5585 1
    5084     6744     6746 1
    5085     2101     2102 1
    5086     2138     2139 1
    5087     3807     3809 1
    5088     7362     7364 1
    5089     2601     2602 1
    5090     1509     1510 1
    5091     1238     1239 1
    5092     2153     2154 1
    5093     1324     1325 1
    5094     2387     2388 1
    5095     1583     1584 1
    5096     2079     2080 1
    5097     1968     1969 1
    5098     1435     1436 1
    5099     3660     3661 1
    5100     5415     5416 1
    5101     5577     5578 1
    5102      771      772 1
    5103      993      994 1
    5104     2170     2171 1
    5105     1911     1912 1
    5106      695      696 1
    5107     1985     1986 1
    5108      808      809 1
    5109     2022     2023 1
    5110      845      846 1
    5111      734      735 1
    5112      859      860 1
    5113      449      450 1
    5114     2706     2708 1
    5115     2386     2387 1
    5116     1551     1552 1
    5117     1514     1515 1
    5118     2275     2276 1
    5119     1736     1737 1
    5120     1261     1260 1
    5121     9561     9563 1
    5122     3477     3478 1
    5123     3396     3397 1
    5124     6942     6944 1
    5125     7806     7808 1
    5126     3558     3559 1
    5127     6780     6782 1
    5128     4935     4936 1
    5129     9183     9185 1
    5130     3018     3019 1
    5131     3180     3181 1
    5132     1521     1522 1
    5133     9165     9167 1
    5134     3327     3328 1
    5135     3246     3247 1
    5136     5001     5002 1
    5137     5163     5164 1
    5138     6924     6926 1
    5139     5082     5083 1
    5140     3165     3166 1
    5141      759      760 1
    5142     1455     1456 1
    5143     1610     1611 1
    5144     1869     1870 1
    5145     1042     1043 1
    5146     6783     6784 1
    5147     6945     6946 1
    5148     9618     9619 1
    5149     7317     7318 1
    5150     7155     7156 1
    5151     9153     9154 1
    5152     9072     9073 1
    5153      875      876 1
    5154     3858     3860 1
    5155     2940     2942 1
    5156     5019     5021 1
    5157     2778     2780 1
    5158     6612     6614 1
    5159      536      537 1
    5160     5736     5737 1
    5161     1613     1598 1
    5162     9717     9718 1
    5163     7881     7882 1
    5164     8124     8125 1
    5165      236      237 1
    5166     5526     5527 1
    5167     5364     5365 1
    5168     3717     3718 1
    5169     3798     3799 1
    5170     3366     3367 1
    5171     5445     5446 1
    5172      421      422 1
    5173     6786     6788 1
    5174     7488     7490 1
    5175     7650     7652 1
    5176     9567     9569 1
    5177     1048     1049 1
    5178     1085     1086 1
    5179      378      379 1
    5180     6948     6950 1
    5181     9189     9191 1
    5182      752      753 1
    5183      974      975 1
    5184     2502     2504 1
    5185      863      864 1
    5186      789      790 1
    5187     6123     6125 1
    5188     8376     8378 1
    5189     8727     8729 1
    5190     8538     8540 1
    5191     6810     6812 1
    5192     8565     8567 1
    5193     4983     4985 1
    5194     5253     5255 1
    5195     3309     3311 1
    5196     3417     3419 1
    5197     5496     5498 1
    5198      932      933 1
    5199     5145     5147 1
    5200     3147     3149 1
    5201     5064     5066 1
    5202     3228     3229 1
    5203     1704     1705 1
    5204     1778     1779 1
    5205     1667     1668 1
    5206      126      125 1
    5207      265      266 1
    5208     2025     2026 1
    5209     1860     1861 1
    5210     2619     2620 1
    5211     7734     7735 1
    5212     9732     9733 1
    5213     9651     9652 1
    5214     9813     9814 1
    5215     6099     6100 1
    5216     3264     3265 1
    5217     3102     3103 1
    5218     1223     1222 1
    5219     5181     5182 1
    5220     6261     6262 1
    5221     5343     5344 1
    5222     8994     8995 1
    5223     7671     7672 1
    5224     7509     7510 1
    5225      145      146 1
    5226      108      109 1
    5227     6915     6916 1
    5228     9588     9589 1
    5229     5643     5645 1
    5230     9426     9427 1
    5231      622      623 1
    5232      505      506 1
    5233      468      469 1
    5234      616      617 1
    5235     6282     6283 1
    5236     1105     1106 1
    5237     2886     2888 1
    5238     6564     6565 1
    5239     2811     2812 1
    5240     4566     4567 1
    5241     6402     6403 1
    5242     6132     6134 1
    5243     1709     1710 1
    5244      780      781 1
    5245     1008     1009 1
    5246     7704     7705 1
    5247     8493     8495 1
    5248     8223     8225 1
    5249     8061     8063 1
    5250     9978     9980 1
    5251    10086    10088 1
    5252      412      411 1
    5253      560      559 1
    5254      454      439 1
    5255     4611     4612 1
    5256     2694     2695 1
    5257     5193     5195 1
    5258     4005     4007 1
    5259     3276     3278 1
    5260     3843     3845 1
    5261     6111     6113 1
    5262     5355     5357 1
    5263     4761     4763 1
    5264     2844     2846 1
    5265     6273     6275 1
    5266     3114     3116 1
    5267     1684     1685 1
    5268     4605     4607 1
    5269     6264     6266 1
    5270     6102     6104 1
    5271     4752     4754 1
    5272     2835     2837 1
    5273     6237     6239 1
    5274     3915     3917 1
    5275     5994     5996 1
    5276     4644     4646 1
    5277     6669     6671 1
    5278      716      717 1
    5279      519      520 1
    5280      967      952 1
    5281      913      914 1
    5282     5130     5131 1
    5283     3273     3275 1
    5284     1229     1230 1
    5285     8253     8255 1
    5286     7335     7337 1
    5287     7158     7160 1
    5288       36       21 1
    5289     8019     8021 1
    5290     9018     9020 1
    5291     7101     7103 1
    5292     8856     8858 1
    5293     9936     9938 1
    5294     9774     9776 1
    5295     4548     4550 1
    5296     2793     2795 1
    5297     5277     5279 1
    5298     2361     2362 1
    5299      141      142 1
    5300     1518     1503 1
    5301     2841     2843 1
    5302     4758     4760 1
    5303     6675     6677 1
    5304     6243     6245 1
    5305     4650     4652 1
    5306     6549     6550 1
    5307     2517     2519 1
    5308     2245     2246 1
    5309     2208     2209 1
    5310     1063     1064 1
    5311     6987     6989 1
    5312     2288     2289 1
    5313     6825     6827 1
    5314     1533     1534 1
    5315     1607     1608 1
    5316     8580     8582 1
    5317     8823     8825 1
    5318     1718     1719 1
    5319     2362     2363 1
    5320     1570     1571 1
    5321      896      897 1
    5322     1049     1050 1
    5323      975      976 1
    5324      790      791 1
    5325      864      865 1
    5326     9357     9358 1
    5327     8277     8278 1
    5328     7278     7279 1
    5329     3180     3182 1
    5330     3477     3479 1
    5331     3396     3398 1
    5332     7221     7222 1
    5333     7464     7465 1
    5334     3558     3560 1
    5335     4935     4937 1
    5336     3018     3020 1
    5337     7788     7789 1
    5338     7626     7627 1
    5339     9300     9301 1
    5340      587      588 1
    5341     7059     7060 1
    5342     1411     1412 1
    5343     1374     1375 1
    5344     1337     1338 1
    5345     2096     2097 1
    5346     2496     2498 1
    5347      887      888 1
    5348     1035     1036 1
    5349     2865     2866 1
    5350     6699     6700 1
    5351     3243     3244 1
    5352     4998     4999 1
    5353     5160     5161 1
    5354     4620     4621 1
    5355     5766     5767 1
    5356     3525     3526 1
    5357     4713     4714 1
    5358     2958     2959 1
    5359     5955     5956 1
    5360      438      439 1
    5361     5604     5605 1
    5362     4848     4849 1
    5363     6276     6277 1
    5364     6006     6007 1
    5365     4926     4927 1
    5366     3009     3010 1
    5367     3171     3172 1
    5368     5844     5845 1
    5369     5439     5440 1
    5370     4089     4090 1
    5371     6438     6439 1
    5372     4359     4360 1
    5373     2514     2516 1
    5374     9831     9833 1
    5375     6069     6070 1
    5376     4152     4153 1
    5377     5907     5908 1
    5378     4422     4423 1
    5379     6339     6340 1
    5380     9669     9671 1
    5381     7752     7754 1
    5382     9750     9752 1
    5383     1613     1614 1
    5384     1443     1444 1
    5385     8742     8743 1
    5386     6906     6907 1
    5387     8904     8905 1
    5388     8985     8986 1
    5389     4725     4726 1
    5390     4686     4688 1
    5391     8916     8917 1
    5392     6918     6919 1
    5393     8754     8755 1
    5394     8997     8998 1
    5395     9015     9017 1
    5396     1052     1053 1
    5397     7098     7100 1
    5398     8853     8855 1
    5399      941      942 1
    5400     8691     8693 1
    5401     1015     1016 1
    5402     1005      990 1
    5403     9366     9367 1
    5404     7287     7288 1
    5405     7206     7207 1
    5406     9123     9124 1
    5407      529      530 1
    5408     1800     1799 1
    5409     1763     1762 1
    5410     1933     1934 1
    5411     2044     2045 1
    5412     2081     2082 1
    5413     1847     1848 1
    5414     6306     6308 1
    5415     2796     2798 1
    5416     4551     4553 1
    5417     5307     5309 1
    5418     5469     5471 1
    5419     3714     3716 1
    5420     1328     1329 1
    5421     4227     4229 1
    5422     5631     5633 1
    5423     2425     2426 1
    5424     2388     2389 1
    5425      156      157 1
    5426     2577     2579 1
    5427     5190     5192 1
    5428     3651     3653 1
    5429     5649     5651 1
    5430     2685     2687 1
    5431     5244     5246 1
    5432     5406     5408 1
    5433     5352     5354 1
    5434     5325     5327 1
    5435     2949     2951 1
    5436     5109     5111 1
    5437     8553     8555 1
    5438      155      156 1
    5439      118      119 1
    5440      124      125 1
    5441     6798     6800 1
    5442     8715     8717 1
    5443      168      169 1
    5444     2145     2130 1
    5445     7248     7249 1
    5446     7410     7411 1
    5447    10083    10084 1
    5448     9327     9328 1
    5449     5046     5047 1
    5450     5208     5209 1
    5451     4695     4696 1
    5452     4857     4858 1
    5453     3291     3292 1
    5454     8490     8491 1
    5455     9885     9886 1
    5456     9804     9805 1
    5457     7725     7726 1
    5458     7968     7969 1
    5459      219      220 1
    5460     3213     3215 1
    5461     2850     2851 1
    5462     6684     6685 1
    5463     4956     4957 1
    5464     2416     2415 1
    5465     2305     2304 1
    5466     1338     1339 1
    5467     9291     9293 1
    5468     2757     2758 1
    5469     6429     6430 1
    5470     4674     4675 1
    5471     4512     4513 1
    5472      277      276 1
    5473     2393     2394 1
    5474     2279     2280 1
    5475     1837     1838 1
    5476      805      806 1
    5477     1800     1801 1
    5478     2056     2057 1
    5479      960      961 1
    5480     1071     1072 1
    5481      879      880 1
    5482     1874     1875 1
    5483      990      991 1
    5484     1982     1983 1
    5485       46       47 1
    5486       55       40 1
    5487     2065     2066 1
    5488     5691     5692 1
    5489     1113     1114 1
    5490     2772     2774 1
    5491     6606     6608 1
    5492     5013     5015 1
    5493     2934     2936 1
    5494     3852     3854 1
    5495      103      102 1
    5496     4920     4921 1
    5497     3084     3085 1
    5498     3003     3004 1
    5499       79       80 1
    5500     5433     5434 1
    5501       42       43 1
    5502     5595     5596 1
    5503     1871     1872 1
    5504     3678     3679 1
    5505     5409     5411 1
    5506     5328     5330 1
    5507     5247     5249 1
    5508     7434     7435 1
    5509     8229     8230 1
    5510     8067     8068 1
    5511     9351     9352 1
    5512     7272     7273 1
    5513     9984     9985 1
    5514      636      637 1
    5515      328      329 1
    5516     1021     1022 1
    5517      365      366 1
    5518     7074     7075 1
    5519     7236     7237 1
    5520     2910     2911 1
    5521     7479     7480 1
    5522     9315     9316 1
    5523     2207     2208 1
    5524     3516     3518 1
    5525     6621     6623 1
    5526     2709     2711 1
    5527     2787     2789 1
    5528     2137     2138 1
    5529     2395     2396 1
    5530     1112     1111 1
    5531     1226     1227 1
    5532     1236     1237 1
    5533     2116     2117 1
    5534     1857     1858 1
    5535      726      727 1
    5536      689      690 1
    5537     3474     3475 1
    5538     1185     1186 1
    5539     3393     3394 1
    5540      541      542 1
    5541     3555     3556 1
    5542      812      813 1
    5543     8262     8264 1
    5544     6885     6887 1
    5545     8802     8804 1
    5546      937      938 1
    5547      900      901 1
    5548     1011     1012 1
    5549      180      181 1
    5550     5385     5387 1
    5551     5223     5225 1
    5552     5304     5306 1
    5553     2226     2227 1
    5554     2189     2190 1
    5555     8214     8216 1
    5556     8403     8405 1
    5557       21       22 1
    5558     2030     2031 1
    5559     3330     3331 1
    5560     4707     4708 1
    5561     4869     4870 1
    5562     2037     2038 1
    5563     1741     1742 1
    5564     5085     5086 1
    5565     3168     3169 1
    5566     1815     1816 1
    5567     2074     2075 1
    5568     2429     2430 1
    5569      191      192 1
    5570     1252     1237 1
    5571     1670     1655 1
    5572     6102     6103 1
    5573      667      668 1
    5574     7779     7781 1
    5575     8412     8413 1
    5576     7359     7360 1
    5577     8952     8953 1
    5578     7035     7036 1
    5579     2691     2692 1
    5580     4152     4154 1
    5581     6069     6071 1
    5582     6339     6341 1
    5583     5907     5909 1
    5584     4422     4424 1
    5585     5535     5537 1
    5586     8373     8375 1
    5587     3171     3173 1
    5588     6090     6091 1
    5589     3849     3850 1
    5590     6252     6253 1
    5591     4143     4144 1
    5592     4062     4063 1
    5593     6060     6061 1
    5594     6141     6142 1
    5595     5898     5899 1
    5596      137      138 1
    5597     5610     5611 1
    5598     1863     1864 1
    5599     1139     1140 1
    5600     7977     7979 1
    5601     4731     4732 1
    5602     4353     4354 1
    5603     3138     3139 1
    5604     7896     7898 1
    5605     2493     2494 1
    5606     7815     7817 1
    5607     2976     2977 1
    5608     6930     6931 1
    5609     8280     8281 1
    5610     7470     7471 1
    5611     6768     6769 1
    5612     8820     8821 1
    5613      358      359 1
    5614     6963     6965 1
    5615     7125     7127 1
    5616     9204     9206 1
    5617     9042     9044 1
    5618     7368     7370 1
    5619     7044     7046 1
    5620     8961     8963 1
    5621     7551     7552 1
    5622     3819     3820 1
    5623     2255     2256 1
    5624     1451     1452 1
    5625     1414     1415 1
    5626     2366     2367 1
    5627      731      730 1
    5628     1303     1304 1
    5629    10041    10042 1
    5630      492      477 1
    5631     1119     1104 1
    5632     3609     3610 1
    5633     1258     1259 1
    5634     2442     2444 1
    5635     2236     2237 1
    5636     9177     9178 1
    5637     8907     8908 1
    5638     8745     8746 1
    5639     1594     1595 1
    5640     6417     6418 1
    5641     2745     2746 1
    5642     4878     4879 1
    5643     4662     4663 1
    5644     4500     4501 1
    5645     5481     5482 1
    5646      668      669 1
    5647     1499     1500 1
    5648      261      262 1
    5649      631      632 1
    5650     1106     1107 1
    5651      169      154 1
    5652     1804     1805 1
    5653     2146     2147 1
    5654     5589     5590 1
    5655     6468     6470 1
    5656     5427     5428 1
    5657     4389     4391 1
    5658     4173     4175 1
    5659     1046     1047 1
    5660     5928     5930 1
    5661     3672     3673 1
    5662     4011     4013 1
    5663     6630     6632 1
    5664     2481     2483 1
    5665     2721     2723 1
    5666      723      724 1
    5667     9870     9872 1
    5668      325      326 1
    5669      251      252 1
    5670      214      215 1
    5671     2571     2572 1
    5672     4236     4237 1
    5673     6315     6316 1
    5674     4317     4318 1
    5675     4479     4480 1
    5676     1294     1295 1
    5677     8184     8185 1
    5678    10020    10021 1
    5679     8103     8104 1
    5680     9615     9616 1
    5681     9858     9859 1
    5682     8346     8347 1
    5683     7779     7780 1
    5684     5703     5704 1
    5685     1180     1181 1
    5686     6537     6538 1
    5687     4458     4459 1
    5688     1386     1387 1
    5689     1461     1462 1
    5690     1575     1576 1
    5691     2373     2374 1
    5692      618      619 1
    5693      470      471 1
    5694     6402     6404 1
    5695     2811     2813 1
    5696     4566     4568 1
    5697     6564     6566 1
    5698      507      508 1
    5699      126      127 1
    5700       52       53 1
    5701      163      164 1
    5702     3645     3646 1
    5703     7302     7304 1
    5704     7140     7142 1
    5705      514      515 1
    5706     9057     9059 1
    5707     9138     9140 1
    5708     6030     6032 1
    5709     5868     5870 1
    5710     4032     4034 1
    5711      645      646 1
    5712     4194     4196 1
    5713     4113     4115 1
    5714     5949     5951 1
    5715     8580     8581 1
    5716     6825     6826 1
    5717     6987     6988 1
    5718     8823     8824 1
    5719       56       57 1
    5720     6999     7000 1
    5721      512      513 1
    5722     6837     6838 1
    5723     8592     8593 1
    5724     8835     8836 1
    5725     1310     1311 1
    5726     2336     2337 1
    5727     3576     3577 1
    5728     1076     1075 1
    5729     2252     2253 1
    5730     2064     2065 1
    5731     1829     1830 1
    5732      428      429 1
    5733      391      392 1
    5734      613      614 1
    5735     7848     7850 1
    5736     7605     7607 1
    5737     7686     7688 1
    5738     9684     9686 1
    5739     7443     7445 1
    5740     9522     9524 1
    5741     1743     1744 1
    5742     2655     2656 1
    5743     4419     4420 1
    5744     6336     6337 1
    5745     5256     5257 1
    5746     9828     9830 1
    5747     7749     7751 1
    5748     9666     9668 1
    5749     9747     9749 1
    5750     6867     6868 1
    5751     6381     6382 1
    5752     4302     4303 1
    5753     4140     4141 1
    5754     4572     4573 1
    5755     6057     6058 1
    5756     6570     6571 1
    5757     2817     2818 1
    5758     2535     2537 1
    5759     6408     6409 1
    5760     6138     6139 1
    5761       11       12 1
    5762     2640     2641 1
    5763     1519     1518 1
    5764     7143     7144 1
    5765     7251     7252 1
    5766     9330     9331 1
    5767     7413     7414 1
    5768     7332     7333 1
    5769     7305     7306 1
    5770     9060     9061 1
    5771     9141     9142 1
    5772     8652     8653 1
    5773     9489     9490 1
    5774     7572     7573 1
    5775     2218     2217 1
    5776     2403     2402 1
    5777     2292     2291 1
    5778     1417     1418 1
    5779     1380     1381 1
    5780     1043     1028 1
    5781     7131     7133 1
    5782     6591     6592 1
    5783     6753     6754 1
    5784     5673     5674 1
    5785     4836     4837 1
    5786     5835     5836 1
    5787     3756     3757 1
    5788     3594     3595 1
    5789     1703     1704 1
    5790     1777     1778 1
    5791     6576     6577 1
    5792     4740     4741 1
    5793     4821     4822 1
    5794     2823     2824 1
    5795     6738     6739 1
    5796     6657     6658 1
    5797     4278     4279 1
    5798     5160     5162 1
    5799     3243     3245 1
    5800     4998     5000 1
    5801     6033     6034 1
    5802     6357     6358 1
    5803     4197     4198 1
    5804     6699     6701 1
    5805     2865     2867 1
    5806     4620     4622 1
    5807       60       61 1
    5808      568      553 1
    5809     8616     8618 1
    5810     9156     9158 1
    5811     6741     6743 1
    5812     3582     3584 1
    5813     5823     5825 1
    5814     5661     5663 1
    5815     3744     3746 1
    5816     6579     6581 1
    5817     4824     4826 1
    5818     5676     5677 1
    5819     3840     3841 1
    5820     3597     3598 1
    5821     5838     5839 1
    5822     2637     2638 1
    5823     3489     3490 1
    5824     3408     3409 1
    5825     4002     4003 1
    5826     3570     3571 1
    5827     3759     3760 1
    5828     7596     7597 1
    5829     6798     6799 1
    5830     8757     8758 1
    5831     8919     8920 1
    5832     9513     9514 1
    5833     8715     8716 1
    5834     8553     8554 1
    5835     6876     6877 1
    5836     8874     8875 1
    5837     8793     8794 1
    5838     2373     2358 1
    5839     1424     1425 1
    5840      858      859 1
    5841     9663     9665 1
    5842     7746     7748 1
    5843     1058     1059 1
    5844      451      452 1
    5845     1095     1096 1
    5846     9744     9746 1
    5847     9825     9827 1
    5848     1494     1493 1
    5849     1457     1456 1
    5850     2832     2834 1
    5851     4749     4751 1
    5852     3993     3995 1
    5853     6666     6668 1
    5854     3831     3833 1
    5855      663      648 1
    5856      652      653 1
    5857      115      116 1
    5858     4944     4946 1
    5859     8232     8233 1
    5860     8394     8395 1
    5861     8151     8152 1
    5862      430      431 1
    5863     2556     2557 1
    5864      393      394 1
    5865      356      357 1
    5866     9906     9907 1
    5867      615      616 1
    5868     8475     8476 1
    5869     8424     8426 1
    5870      644      645 1
    5871     8964     8966 1
    5872      677      678 1
    5873     7047     7049 1
    5874     7371     7373 1
    5875     6783     6785 1
    5876     6945     6947 1
    5877     9618     9620 1
    5878       12       13 1
    5879     2244     2243 1
    5880     7812     7813 1
    5881     6495     6497 1
    5882     6414     6416 1
    5883     4497     4499 1
    5884     2742     2744 1
    5885     4578     4580 1
    5886     4659     4661 1
    5887      127      128 1
    5888     1422     1423 1
    5889     7104     7105 1
    5890     8859     8860 1
    5891     9021     9022 1
    5892     6834     6835 1
    5893     6996     6997 1
    5894     8589     8590 1
    5895     2068     2069 1
    5896     1038     1037 1
    5897     1979     1980 1
    5898     1905     1906 1
    5899     2016     2017 1
    5900     2757     2759 1
    5901     6429     6431 1
    5902     4674     4676 1
    5903      401      400 1
    5904     4512     4514 1
    5905     8439     8441 1
    5906      204      205 1
    5907     6750     6752 1
    5908     7734     7736 1
    5909     2814     2815 1
    5910     6324     6325 1
    5911     4245     4246 1
    5912     3867     3868 1
    5913     4569     4570 1
    5914     6270     6271 1
    5915     6108     6109 1
    5916     9732     9734 1
    5917     9651     9653 1
    5918     4437     4439 1
    5919     6354     6356 1
    5920     5274     5276 1
    5921     8163     8164 1
    5922     8082     8083 1
    5923     9999    10000 1
    5924     9918     9919 1
    5925    10080    10081 1
    5926     8244     8245 1
    5927      951      952 1
    5928     1832     1833 1
    5929     1795     1796 1
    5930      867      868 1
    5931     1089     1090 1
    5932     1126     1127 1
    5933     8370     8371 1
    5934     8532     8533 1
    5935     6804     6805 1
    5936     8721     8722 1
    5937     8559     8560 1
    5938     5406     5407 1
    5939     3732     3733 1
    5940     2292     2293 1
    5941     1825     1826 1
    5942     1001     1002 1
    5943     9483     9485 1
    5944     8658     8660 1
    5945     7578     7580 1
    5946     8928     8930 1
    5947     7011     7013 1
    5948      454      455 1
    5949     7173     7175 1
    5950     1578     1579 1
    5951     9495     9497 1
    5952     1928     1929 1
    5953     2113     2114 1
    5954     2076     2077 1
    5955     9324     9326 1
    5956     2511     2512 1
    5957      544      545 1
    5958     5040     5041 1
    5959     1251     1252 1
    5960     5202     5203 1
    5961     1366     1367 1
    5962      581      582 1
    5963     3285     3286 1
    5964      766      767 1
    5965      401      402 1
    5966      216      217 1
    5967      653      654 1
    5968     6681     6683 1
    5969     4953     4955 1
    5970     4791     4793 1
    5971     6708     6710 1
    5972     4602     4604 1
    5973     2847     2849 1
    5974     2874     2876 1
    5975      135      136 1
    5976       24       25 1
    5977     1346     1347 1
    5978     6435     6436 1
    5979     4518     4519 1
    5980     4680     4681 1
    5981     2345     2346 1
    5982     2197     2198 1
    5983     2308     2309 1
    5984     1504     1505 1
    5985     1541     1542 1
    5986      128      129 1
    5987     2763     2764 1
    5988     1342     1343 1
    5989     3255     3257 1
    5990     9600     9601 1
    5991     9168     9169 1
    5992     6765     6766 1
    5993     2448     2449 1
    5994     6927     6928 1
    5995     8169     8170 1
    5996     8331     8332 1
    5997     1420     1421 1
    5998     2059     2060 1
    5999     2520     2522 1
    6000     2592     2594 1
    6001     1384     1385 1
    6002     2529     2530 1
    6003     3801     3802 1
    6004     4206     4207 1
    6005       13       14 1
    6006     3198     3199 1
    6007     2414     2415 1
    6008     1378     1379 1
    6009     1267     1268 1
    6010     1489     1490 1
    6011     2253     2254 1
    6012     6600     6601 1
    6013     5007     5008 1
    6014     2928     2929 1
    6015     2766     2767 1
    6016     3846     3847 1
    6017     1056     1057 1
    6018     1093     1094 1
    6019     2121     2122 1
    6020     2380     2381 1
    6021     2195     2196 1
    6022     1391     1392 1
    6023     9417     9418 1
    6024     1293     1294 1
    6025     9300     9302 1
    6026     2868     2869 1
    6027     7626     7628 1
    6028     7788     7790 1
    6029     2541     2542 1
    6030     2661     2662 1
    6031     4623     4624 1
    6032     7464     7466 1
    6033     7059     7061 1
    6034     7221     7223 1
    6035     6702     6703 1
    6036     1426     1427 1
    6037     2613     2614 1
    6038     6909     6911 1
    6039     9258     9260 1
    6040     9096     9098 1
    6041     8988     8990 1
    6042     2141     2142 1
    6043     2055     2056 1
    6044     2215     2216 1
    6045     3048     3050 1
    6046     6504     6506 1
    6047     4587     4589 1
    6048     5127     5129 1
    6049     1552     1553 1
    6050     8313     8314 1
    6051     3339     3340 1
    6052     3501     3502 1
    6053     5094     5095 1
    6054     4257     4258 1
    6055     6174     6175 1
    6056     1130     1131 1
    6057      945      946 1
    6058     1204     1205 1
    6059     1727     1728 1
    6060     9627     9628 1
    6061     1351     1352 1
    6062     1582     1583 1
    6063     6918     6920 1
    6064     8754     8756 1
    6065     8916     8918 1
    6066     8997     8999 1
    6067        9       10 1
    6068     1690     1691 1
    6069     4428     4429 1
    6070     5712     5714 1
    6071     2125     2126 1
    6072     6345     6346 1
    6073     3861     3862 1
    6074     2850     2852 1
    6075     6684     6686 1
    6076     4956     4958 1
    6077     6318     6319 1
    6078     4794     4796 1
    6079     5685     5687 1
    6080     1735     1736 1
    6081     1624     1625 1
    6082     1439     1440 1
    6083     1550     1551 1
    6084     1513     1514 1
    6085     6597     6598 1
    6086     2712     2713 1
    6087     2220     2221 1
    6088     1878     1879 1
    6089     9528     9529 1
    6090     9759     9760 1
    6091     7086     7087 1
    6092     9003     9004 1
    6093     8841     8842 1
    6094     6558     6559 1
    6095     4452     4453 1
    6096     9921     9922 1
    6097     6531     6532 1
    6098     6396     6397 1
    6099     8004     8005 1
    6100     2397     2398 1
    6101     8373     8374 1
    6102     9048     9049 1
    6103     8535     8536 1
    6104     7131     7132 1
    6105     6969     6970 1
    6106     7050     7051 1
    6107     9210     9211 1
    6108     8454     8455 1
    6109     8967     8968 1
    6110     7374     7375 1
    6111      834      819 1
    6112     1359     1358 1
    6113     2562     2563 1
    6114     7536     7538 1
    6115      610      609 1
    6116     1253     1254 1
    6117      552      553 1
    6118     6537     6539 1
    6119     4458     4460 1
    6120     1930     1931 1
    6121     2340     2341 1
    6122     1819     1820 1
    6123     2266     2267 1
    6124     3711     3712 1
    6125     2303     2304 1
    6126     2041     2042 1
    6127     9327     9329 1
    6128     7248     7250 1
    6129     7410     7412 1
    6130     8490     8492 1
    6131    10083    10085 1
    6132     1329     1330 1
    6133     7002     7003 1
    6134     6840     6841 1
    6135     8595     8596 1
    6136     8865     8866 1
    6137     7110     7111 1
    6138     9027     9028 1
    6139     6711     6713 1
    6140     7701     7702 1
    6141     8700     8701 1
    6142     7863     7864 1
    6143      511      496 1
    6144     3813     3814 1
    6145      571      572 1
    6146     1793     1794 1
    6147     1645     1646 1
    6148     1830     1831 1
    6149     7656     7657 1
    6150     6903     6905 1
    6151     8442     8444 1
    6152     8982     8984 1
    6153     1182     1183 1
    6154     2679     2680 1
    6155     7434     7436 1
    6156     7272     7274 1
    6157     8478     8480 1
    6158     9351     9353 1
    6159     9150     9151 1
    6160     1468     1469 1
    6161     2272     2273 1
    6162     1474     1475 1
    6163     2420     2421 1
    6164     2383     2384 1
    6165     6543     6544 1
    6166     4464     4465 1
    6167     2592     2593 1
    6168       90       91 1
    6169     9924     9925 1
    6170     8007     8008 1
    6171     8385     8386 1
    6172      397      382 1
    6173     9762     9763 1
    6174      419      420 1
    6175     6399     6401 1
    6176      844      845 1
    6177      807      808 1
    6178      992      993 1
    6179     2505     2506 1
    6180     4971     4972 1
    6181     6726     6727 1
    6182     4728     4729 1
    6183     2973     2974 1
    6184     3135     3136 1
    6185     4809     4810 1
    6186     2892     2893 1
    6187     4416     4417 1
    6188     6063     6064 1
    6189     6333     6334 1
    6190     5901     5902 1
    6191     4146     4147 1
    6192       18       19 1
    6193     5673     5675 1
    6194     5835     5837 1
    6195     6753     6755 1
    6196     4836     4838 1
    6197     6591     6593 1
    6198     3756     3758 1
    6199     3594     3596 1
    6200      682      667 1
    6201     1559     1560 1
    6202     4392     4394 1
    6203     6471     6473 1
    6204     6228     6230 1
    6205     6633     6635 1
    6206     4635     4637 1
    6207      625      626 1
    6208     8568     8569 1
    6209     6813     6814 1
    6210     8730     8731 1
    6211     8325     8326 1
    6212     8649     8650 1
    6213     1302     1303 1
    6214     8604     8605 1
    6215     9171     9172 1
    6216     2354     2339 1
    6217     9069     9071 1
    6218     9393     9395 1
    6219     2676     2678 1
    6220     9150     9152 1
    6221     9636     9638 1
    6222     7209     7210 1
    6223     8208     8209 1
    6224     9126     9127 1
    6225     7314     7316 1
    6226     7152     7154 1
    6227     1722     1723 1
    6228     1488     1489 1
    6229     2712     2714 1
    6230     3561     3563 1
    6231     3480     3482 1
    6232     3399     3401 1
    6233     5883     5885 1
    6234     5802     5804 1
    6235     3885     3887 1
    6236     5964     5966 1
    6237     5721     5723 1
    6238      606      591 1
    6239     1464     1465 1
    6240      111      112 1
    6241     8259     8260 1
    6242     7341     7342 1
    6243     8181     8183 1
    6244     9180     9182 1
    6245      819      820 1
    6246     8343     8345 1
    6247     1372     1371 1
    6248     1335     1334 1
    6249     2144     2145 1
    6250      644      629 1
    6251     5103     5104 1
    6252     3348     3349 1
    6253     3267     3268 1
    6254     5184     5185 1
    6255     3510     3511 1
    6256     5346     5347 1
    6257     4914     4915 1
    6258     2997     2998 1
    6259     4254     4256 1
    6260     6171     6173 1
    6261     3930     3932 1
    6262     1299     1300 1
    6263     1373     1374 1
    6264     1410     1411 1
    6265     1598     1599 1
    6266     2140     2141 1
    6267     1336     1337 1
    6268      664      665 1
    6269      935      936 1
    6270     1304     1305 1
    6271     5073     5074 1
    6272     3156     3157 1
    6273     3318     3319 1
    6274     3237     3238 1
    6275     5154     5155 1
    6276     4992     4993 1
    6277     9543     9545 1
    6278     9993     9994 1
    6279     8238     8239 1
    6280     8157     8158 1
    6281     8076     8077 1
    6282    10074    10075 1
    6283     9912     9913 1
    6284     5859     5861 1
    6285      650      651 1
    6286     4782     4783 1
    6287     3054     3055 1
    6288     5133     5134 1
    6289     4440     4441 1
    6290     1937     1938 1
    6291     1355     1356 1
    6292     1774     1775 1
    6293     1503     1504 1
    6294     2347     2348 1
    6295     1589     1590 1
    6296     1264     1265 1
    6297     2290     2291 1
    6298     1560     1561 1
    6299     2216     2217 1
    6300     1341     1342 1
    6301     2142     2143 1
    6302     1301     1302 1
    6303     2327     2328 1
    6304     1523     1524 1
    6305     2401     2402 1
    6306     7629     7631 1
    6307     7224     7226 1
    6308      406      407 1
    6309     7467     7469 1
    6310     9303     9305 1
    6311     9546     9548 1
    6312     7791     7793 1
    6313     7062     7064 1
    6314      132      133 1
    6315     2306     2307 1
    6316     2417     2418 1
    6317     1104     1105 1
    6318     3042     3044 1
    6319     6498     6500 1
    6320     4581     4583 1
    6321     5121     5123 1
    6322     3462     3463 1
    6323     4461     4462 1
    6324     5136     5137 1
    6325     3624     3625 1
    6326     5541     5542 1
    6327     3975     3976 1
    6328     6216     6217 1
    6329     6540     6541 1
    6330     3057     3058 1
    6331     5379     5380 1
    6332     7974     7975 1
    6333     7731     7732 1
    6334     9891     9892 1
    6335     9810     9811 1
    6336     1835     1836 1
    6337     2094     2095 1
    6338     3240     3242 1
    6339     5157     5159 1
    6340     4995     4997 1
    6341     5076     5078 1
    6342     3159     3161 1
    6343     3321     3323 1
    6344      853      838 1
    6345     1746     1747 1
    6346     3699     3700 1
    6347     2249     2250 1
    6348     3732     3734 1
    6349     2167     2168 1
    6350     2089     2090 1
    6351     4767     4768 1
    6352     1806     1807 1
    6353     2583     2584 1
    6354     9990     9992 1
    6355     8073     8075 1
    6356      477      478 1
    6357    10071    10073 1
    6358     8154     8156 1
    6359     8235     8237 1
    6360     9909     9911 1
    6361     9474     9475 1
    6362     1471     1472 1
    6363     6999     7001 1
    6364     6837     6839 1
    6365     8835     8837 1
    6366     8592     8594 1
    6367     9720     9721 1
    6368     2916     2918 1
    6369     3897     3898 1
    6370     2201     2202 1
    6371     5976     5977 1
    6372     1430     1431 1
    6373     1698     1699 1
    6374     1772     1773 1
    6375     1587     1588 1
    6376     5814     5815 1
    6377     1661     1662 1
    6378     1883     1884 1
    6379     1356     1357 1
    6380     5163     5165 1
    6381     5082     5084 1
    6382     3246     3248 1
    6383     3165     3167 1
    6384     5001     5003 1
    6385     3327     3329 1
    6386     1721     1722 1
    6387     1647     1648 1
    6388     1758     1759 1
    6389     7899     7900 1
    6390     7818     7819 1
    6391     7980     7981 1
    6392     1765     1750 1
    6393     1157     1158 1
    6394     1840     1841 1
    6395     3876     3877 1
    6396      311      312 1
    6397     2673     2674 1
    6398      891      876 1
    6399     2159     2160 1
    6400     2122     2123 1
    6401     1281     1282 1
    6402     2381     2382 1
    6403     1392     1393 1
    6404     1466     1467 1
    6405      880      881 1
    6406     3684     3685 1
    6407     5709     5710 1
    6408     5682     5683 1
    6409     3873     3874 1
    6410     5871     5872 1
    6411     5790     5791 1
    6412     3522     3523 1
    6413     5601     5602 1
    6414     5763     5764 1
    6415     5952     5953 1
    6416     8751     8753 1
    6417     5664     5665 1
    6418     8913     8915 1
    6419     3747     3748 1
    6420     7590     7592 1
    6421     3990     3991 1
    6422     5826     5827 1
    6423     3828     3829 1
    6424     9507     9509 1
    6425     9480     9482 1
    6426     1107     1108 1
    6427     5499     5501 1
    6428     4338     4340 1
    6429     3420     3422 1
    6430     7572     7574 1
    6431     9489     9491 1
    6432     2574     2575 1
    6433     8652     8654 1
    6434     9648     9650 1
    6435     7875     7876 1
    6436     8469     8470 1
    6437     8388     8389 1
    6438     9711     9712 1
    6439     8037     8038 1
    6440     8118     8119 1
    6441     9954     9955 1
    6442    10035    10036 1
    6443     1156     1157 1
    6444     7593     7594 1
    6445     9510     9511 1
    6446     8673     8674 1
    6447     9852     9854 1
    6448    10014    10016 1
    6449     9609     9611 1
    6450     7773     7775 1
    6451     2580     2582 1
    6452     2544     2546 1
    6453     5343     5345 1
    6454     3102     3104 1
    6455     6261     6263 1
    6456     5181     5183 1
    6457     3264     3266 1
    6458     6099     6101 1
    6459     2439     2440 1
    6460     2652     2653 1
    6461     7638     7639 1
    6462     9285     9286 1
    6463     2164     2165 1
    6464     5310     5311 1
    6465      763      764 1
    6466     7800     7801 1
    6467     5391     5392 1
    6468     5229     5230 1
    6469     2604     2605 1
    6470     4215     4216 1
    6471     1127     1128 1
    6472     8919     8921 1
    6473     1164     1165 1
    6474     1090     1091 1
    6475     7596     7598 1
    6476     1201     1202 1
    6477     8757     8759 1
    6478     9513     9515 1
    6479     1542     1543 1
    6480     2198     2199 1
    6481     1505     1506 1
    6482     1462     1463 1
    6483     2374     2375 1
    6484     1576     1577 1
    6485     3537     3538 1
    6486     3822     3824 1
    6487     3969     3970 1
    6488     4860     4861 1
    6489     3741     3743 1
    6490     4698     4699 1
    6491     6210     6211 1
    6492     5778     5779 1
    6493     5616     5617 1
    6494     5658     5660 1
    6495     3984     3986 1
    6496     6597     6599 1
    6497      364      363 1
    6498     9447     9448 1
    6499     3204     3206 1
    6500     2031     2016 1
    6501     5424     5425 1
    6502     6207     6208 1
    6503     3669     3670 1
    6504     5586     5587 1
    6505     3966     3967 1
    6506     4047     4048 1
    6507      256      257 1
    6508     5988     5989 1
    6509     2296     2297 1
    6510     1954     1955 1
    6511     8583     8585 1
    6512     4125     4126 1
    6513     3918     3919 1
    6514     5997     5998 1
    6515     5754     5755 1
    6516     1623     1624 1
    6517     8196     8198 1
    6518     7197     7199 1
    6519     9114     9116 1
    6520       81       82 1
    6521     1268     1269 1
    6522     2248     2249 1
    6523      195      196 1
    6524     1989     1990 1
    6525     1490     1491 1
    6526     1296     1297 1
    6527     1724     1725 1
    6528      320      321 1
    6529      229      230 1
    6530     1723     1724 1
    6531     3813     3815 1
    6532     1230     1231 1
    6533     4716     4717 1
    6534     2961     2962 1
    6535     2391     2392 1
    6536     4851     4852 1
    6537     3123     3124 1
    6538     4689     4690 1
    6539     5373     5374 1
    6540     8163     8165 1
    6541     8082     8084 1
    6542     9999    10001 1
    6543    10080    10082 1
    6544     9918     9920 1
    6545     9231     9233 1
    6546     2670     2672 1
    6547     2550     2552 1
    6548     8244     8246 1
    6549     4089     4091 1
    6550       39       40 1
    6551     5439     5441 1
    6552     6276     6278 1
    6553     4359     4361 1
    6554     4521     4523 1
    6555     6438     6440 1
    6556     3198     3200 1
    6557     6006     6008 1
    6558     4926     4928 1
    6559     2487     2489 1
    6560     2727     2729 1
    6561     5457     5459 1
    6562     1175     1176 1
    6563      787      788 1
    6564      793      794 1
    6565      972      973 1
    6566      824      825 1
    6567      978      979 1
    6568     8601     8602 1
    6569      565      566 1
    6570     7602     7603 1
    6571     7440     7441 1
    6572     7953     7954 1
    6573     6873     6874 1
    6574     9870     9871 1
    6575     9681     9682 1
    6576     9519     9520 1
    6577     8790     8791 1
    6578     3747     3749 1
    6579     5664     5666 1
    6580     3990     3992 1
    6581     8436     8437 1
    6582     8976     8977 1
    6583     2433     2434 1
    6584     6897     6898 1
    6585     3828     3830 1
    6586     5826     5828 1
    6587     3585     3587 1
    6588     2643     2645 1
    6589      687      688 1
    6590     5295     5296 1
    6591     3027     3028 1
    6592     3189     3190 1
    6593     4944     4945 1
    6594     1734     1735 1
    6595     1438     1439 1
    6596     1730     1731 1
    6597     1241     1242 1
    6598     1616     1617 1
    6599     1549     1550 1
    6600     2073     2074 1
    6601     3552     3553 1
    6602     4929     4930 1
    6603     3012     3013 1
    6604     2250     2251 1
    6605      466      467 1
    6606     1865     1866 1
    6607      725      726 1
    6608      503      504 1
    6609      540      541 1
    6610     1754     1755 1
    6611     5331     5332 1
    6612     4971     4973 1
    6613      577      578 1
    6614     3252     3253 1
    6615     2820     2821 1
    6616     6726     6728 1
    6617     6087     6088 1
    6618     4728     4730 1
    6619     3135     3137 1
    6620      745      744 1
    6621     2538     2540 1
    6622     2730     2732 1
    6623     6888     6890 1
    6624     4881     4882 1
    6625     4044     4045 1
    6626     8886     8888 1
    6627     8805     8807 1
    6628     3126     3127 1
    6629     8040     8041 1
    6630     9627     9629 1
    6631     2319     2320 1
    6632     5283     5285 1
    6633     6027     6028 1
    6634     5298     5299 1
    6635     3192     3193 1
    6636     3030     3031 1
    6637     4137     4138 1
    6638     4110     4111 1
    6639     6054     6055 1
    6640      795      796 1
    6641     5865     5866 1
    6642     6378     6379 1
    6643     9729     9730 1
    6644     7893     7894 1
    6645    10053    10054 1
    6646     8055     8056 1
    6647     8136     8137 1
    6648     9297     9298 1
    6649     9459     9460 1
    6650     7542     7543 1
    6651     1669     1670 1
    6652     3942     3943 1
    6653     1798     1799 1
    6654     2211     2212 1
    6655     2020     2021 1
    6656     2100     2101 1
    6657     7902     7903 1
    6658     7821     7822 1
    6659     7983     7984 1
    6660     3390     3391 1
    6661     7422     7424 1
    6662     7260     7262 1
    6663     8502     8504 1
    6664     9339     9341 1
    6665    10095    10097 1
    6666     1682     1683 1
    6667     2892     2894 1
    6668     5208     5210 1
    6669     4857     4859 1
    6670     4695     4697 1
    6671     3291     3293 1
    6672     5046     5048 1
    6673     1248     1247 1
    6674       10       11 1
    6675      549      534 1
    6676      777      762 1
    6677     1694     1695 1
    6678     2264     2265 1
    6679     8016     8017 1
    6680     7854     7855 1
    6681     7449     7450 1
    6682      686      687 1
    6683     7611     7612 1
    6684     7935     7936 1
    6685     9933     9934 1
    6686     9771     9772 1
    6687     4131     4132 1
    6688     9690     9691 1
    6689     4941     4942 1
    6690      416      417 1
    6691      634      635 1
    6692     8316     8318 1
    6693      823      824 1
    6694      749      750 1
    6695      564      565 1
    6696     2526     2528 1
    6697     2478     2480 1
    6698      786      787 1
    6699      971      972 1
    6700     1109     1110 1
    6701     2718     2720 1
    6702     1802     1803 1
    6703     1446     1445 1
    6704     2985     2987 1
    6705     4443     4445 1
    6706     6522     6524 1
    6707     4524     4526 1
    6708     6279     6281 1
    6709     4362     4364 1
    6710     2904     2906 1
    6711     4902     4904 1
    6712     3066     3068 1
    6713     6441     6443 1
    6714     3003     3005 1
    6715     5595     5597 1
    6716     2922     2924 1
    6717     5433     5435 1
    6718     4920     4922 1
    6719     3678     3680 1
    6720     3084     3086 1
    6721      149      150 1
    6722     8364     8366 1
    6723     8526     8528 1
    6724     9282     9284 1
    6725     7527     7529 1
    6726     2106     2107 1
    6727     9444     9446 1
    6728     5451     5452 1
    6729     1480     1465 1
    6730     1120     1121 1
    6731      278      279 1
    6732     4344     4345 1
    6733     4182     4183 1
    6734     5505     5506 1
    6735     5937     5938 1
    6736     3426     3427 1
    6737     4020     4021 1
    6738      628      629 1
    6739     9237     9238 1
    6740     7212     7213 1
    6741     9372     9373 1
    6742     7401     7402 1
    6743     7293     7294 1
    6744      663      664 1
    6745     9129     9130 1
    6746     9399     9400 1
    6747     9642     9643 1
    6748     9480     9481 1
    6749     1152     1153 1
    6750      422      423 1
    6751     2490     2491 1
    6752     9534     9536 1
    6753     1367     1368 1
    6754     1595     1596 1
    6755     2313     2314 1
    6756     1546     1547 1
    6757     1894     1895 1
    6758     1620     1621 1
    6759     1657     1658 1
    6760     2350     2351 1
    6761      386      387 1
    6762      349      350 1
    6763      497      498 1
    6764     2133     2134 1
    6765      310      311 1
    6766      307      308 1
    6767     4782     4784 1
    6768     3054     3056 1
    6769      312      313 1
    6770     2244     2245 1
    6771      273      274 1
    6772     7959     7960 1
    6773     9195     9197 1
    6774     9033     9035 1
    6775     6954     6956 1
    6776     7116     7118 1
    6777     8655     8657 1
    6778       16       17 1
    6779     6279     6280 1
    6780     1103     1104 1
    6781     2239     2240 1
    6782     1138     1123 1
    6783       42       41 1
    6784     3096     3098 1
    6785     3258     3260 1
    6786     5337     5339 1
    6787     5175     5177 1
    6788     6093     6095 1
    6789     6255     6257 1
    6790     8841     8843 1
    6791     7086     7088 1
    6792     9003     9005 1
    6793     1908     1909 1
    6794     9921     9923 1
    6795     2241     2242 1
    6796     8004     8006 1
    6797     9759     9761 1
    6798     3168     3170 1
    6799     4869     4871 1
    6800     4707     4709 1
    6801     5085     5087 1
    6802     3330     3332 1
    6803     3780     3782 1
    6804     3942     3944 1
    6805     4725     4727 1
    6806     3132     3134 1
    6807     4482     4484 1
    6808     4320     4322 1
    6809     2970     2972 1
    6810     4347     4349 1
    6811     1994     1995 1
    6812      223      224 1
    6813     8748     8749 1
    6814     8910     8911 1
    6815     6912     6913 1
    6816     4908     4909 1
    6817     8991     8992 1
    6818     2430     2431 1
    6819     3528     3529 1
    6820     3354     3355 1
    6821     5088     5089 1
    6822      182      183 1
    6823      473      458 1
    6824     2053     2054 1
    6825      733      734 1
    6826      431      432 1
    6827      394      395 1
    6828      770      771 1
    6829     6822     6824 1
    6830     8766     8768 1
    6831     7065     7067 1
    6832     6984     6986 1
    6833     8199     8201 1
    6834     8577     8579 1
    6835     6849     6851 1
    6836     7227     7229 1
    6837     9306     9308 1
    6838     9027     9029 1
    6839     8595     8597 1
    6840     7110     7112 1
    6841     7002     7004 1
    6842      518      519 1
    6843      370      371 1
    6844      259      260 1
    6845      629      630 1
    6846      486      485 1
    6847     6840     6842 1
    6848     4143     4145 1
    6849     6060     6062 1
    6850     6141     6143 1
    6851     5898     5900 1
    6852     4062     4064 1
    6853     4557     4559 1
    6854     8700     8702 1
    6855     7701     7703 1
    6856     7863     7865 1
    6857     5139     5140 1
    6858     3060     3061 1
    6859     4788     4789 1
    6860     1433     1434 1
    6861     2339     2340 1
    6862     1359     1360 1
    6863     2302     2303 1
    6864     2265     2266 1
    6865     2315     2316 1
    6866     1396     1397 1
    6867     2976     2978 1
    6868     3138     3140 1
    6869     2493     2495 1
    6870     4731     4733 1
    6871     4353     4355 1
    6872     9633     9635 1
    6873     1256     1257 1
    6874      936      937 1
    6875      216      215 1
    6876     1442     1427 1
    6877     4473     4474 1
    6878     8628     8629 1
    6879     8304     8305 1
    6880      816      817 1
    6881     4881     4883 1
    6882     4044     4046 1
    6883      202      201 1
    6884       22       23 1
    6885     1271     1256 1
    6886     4875     4876 1
    6887     4038     4039 1
    6888     1868     1869 1
    6889     1609     1610 1
    6890     1942     1943 1
    6891     6492     6493 1
    6892     3036     3037 1
    6893     4575     4576 1
    6894     5115     5116 1
    6895      150      135 1
    6896      375      374 1
    6897     8724     8726 1
    6898     3612     3613 1
    6899     4395     4396 1
    6900     6807     6809 1
    6901     8643     8645 1
    6902     6474     6475 1
    6903     8562     8564 1
    6904     6636     6637 1
    6905     3450     3451 1
    6906     4179     4180 1
    6907     5529     5530 1
    6908     1749     1750 1
    6909     1025     1026 1
    6910     6162     6163 1
    6911     4083     4084 1
    6912     1655     1654 1
    6913     1262     1263 1
    6914     1496     1497 1
    6915     2214     2215 1
    6916      472      473 1
    6917     8322     8323 1
    6918      626      627 1
    6919     6801     6803 1
    6920     8529     8531 1
    6921     2484     2486 1
    6922     8448     8450 1
    6923     8718     8720 1
    6924     2532     2534 1
    6925      753      754 1
    6926     2724     2726 1
    6927     8367     8369 1
    6928     8694     8695 1
    6929      188      189 1
    6930     7857     7858 1
    6931     7695     7696 1
    6932      761      762 1
    6933     2098     2099 1
    6934     2172     2173 1
    6935     4317     4319 1
    6936     4236     4238 1
    6937     4479     4481 1
    6938     6315     6317 1
    6939     4824     4825 1
    6940     5067     5069 1
    6941     3447     3448 1
    6942     2628     2629 1
    6943     7584     7585 1
    6944     8664     8665 1
    6945      991      992 1
    6946      806      807 1
    6947     4527     4528 1
    6948     4365     4366 1
    6949     2049     2050 1
    6950     2799     2800 1
    6951     4554     4555 1
    6952     6444     6445 1
    6953     6813     6815 1
    6954     8730     8732 1
    6955     8325     8327 1
    6956     8649     8651 1
    6957      906      907 1
    6958      980      981 1
    6959     8568     8570 1
    6960      869      870 1
    6961     1062     1063 1
    6962      253      254 1
    6963     1017     1018 1
    6964     1673     1674 1
    6965     4335     4337 1
    6966     6144     6146 1
    6967     4065     4067 1
    6968     2240     2241 1
    6969      495      496 1
    6970     2964     2966 1
    6971     2259     2244 1
    6972     1172     1173 1
    6973     4017     4018 1
    6974     5934     5935 1
    6975     8814     8815 1
    6976     8274     8275 1
    6977     3912     3913 1
    6978     5748     5749 1
    6979     5991     5992 1
    6980     8427     8428 1
    6981     8670     8671 1
    6982     3726     3728 1
    6983     4965     4966 1
    6984     2085     2086 1
    6985     4269     4270 1
    6986     6186     6187 1
    6987     3513     3514 1
    6988     5106     5107 1
    6989     3351     3352 1
    6990     4215     4217 1
    6991     5754     5756 1
    6992     3918     3920 1
    6993     5997     5999 1
    6994     1837     1836 1
    6995     1810     1811 1
    6996      119      120 1
    6997       82       83 1
    6998     1198     1199 1
    6999     6057     6059 1
    7000     4302     4304 1
    7001     4572     4574 1
    7002     2817     2819 1
    7003     4140     4142 1
    7004     6381     6383 1
    7005     6408     6410 1
    7006     6138     6140 1
    7007     6570     6572 1
    7008     4221     4223 1
    7009     9243     9244 1
    7010     7569     7570 1
    7011     7407     7408 1
    7012     9135     9136 1
    7013     7299     7300 1
    7014     9405     9406 1
    7015     7218     7219 1
    7016     9378     9379 1
    7017     9648     9649 1
    7018     9486     9487 1
    7019      192      193 1
    7020      198      199 1
    7021       87       88 1
    7022       50       51 1
    7023     1162     1161 1
    7024      586      587 1
    7025     3834     3836 1
    7026     1556     1557 1
    7027     3483     3485 1
    7028     3753     3755 1
    7029     5832     5834 1
    7030     3402     3404 1
    7031     3564     3566 1
    7032     5670     5672 1
    7033      284      285 1
    7034     8268     8269 1
    7035     6891     6892 1
    7036     1538     1539 1
    7037     8808     8809 1
    7038     6978     6980 1
    7039      548      549 1
    7040      799      800 1
    7041      647      648 1
    7042     1522     1523 1
    7043     9708     9709 1
    7044     1544     1543 1
    7045     1285     1284 1
    7046     4188     4189 1
    7047     7713     7715 1
    7048     7956     7958 1
    7049     9873     9875 1
    7050     9792     9794 1
    7051     1138     1139 1
    7052     1291     1292 1
    7053     7731     7733 1
    7054     9891     9893 1
    7055     7974     7976 1
    7056     9810     9812 1
    7057     9474     9476 1
    7058     1176     1177 1
    7059     6033     6035 1
    7060     4197     4199 1
    7061     6357     6359 1
    7062     4278     4280 1
    7063     4116     4118 1
    7064     6114     6116 1
    7065     2287     2288 1
    7066     3573     3574 1
    7067     5760     5761 1
    7068     6003     6004 1
    7069     3924     3925 1
    7070     3492     3493 1
    7071     3411     3412 1
    7072     1859     1860 1
    7073     3342     3343 1
    7074     2637     2639 1
    7075     3489     3491 1
    7076     3570     3572 1
    7077     3597     3599 1
    7078     3840     3842 1
    7079     5676     5678 1
    7080     5838     5840 1
    7081     3408     3410 1
    7082     4002     4004 1
    7083     3759     3761 1
    7084     7203     7205 1
    7085     9120     9122 1
    7086     8202     8204 1
    7087     1018     1019 1
    7088     6819     6820 1
    7089     6981     6982 1
    7090     8574     8575 1
    7091     8817     8818 1
    7092     1993     1978 1
    7093     1290     1291 1
    7094     3612     3614 1
    7095     4395     4397 1
    7096     4017     4019 1
    7097     6474     6476 1
    7098     3450     3452 1
    7099     6636     6638 1
    7100     5367     5369 1
    7101     5529     5531 1
    7102     5745     5747 1
    7103     4179     4181 1
    7104     2475     2477 1
    7105     2595     2597 1
    7106     5619     5620 1
    7107     5700     5701 1
    7108     5781     5782 1
    7109     3540     3541 1
    7110     3702     3703 1
    7111     2390     2389 1
    7112      534      535 1
    7113      460      461 1
    7114     1039     1040 1
    7115      423      424 1
    7116      997      998 1
    7117     5979     5980 1
    7118     3189     3191 1
    7119     5295     5297 1
    7120      886      887 1
    7121     3027     3029 1
    7122     3468     3469 1
    7123      578      579 1
    7124      446      447 1
    7125     3900     3901 1
    7126     3387     3388 1
    7127      292      293 1
    7128      255      256 1
    7129      826      827 1
    7130     2634     2636 1
    7131      340      325 1
    7132     7185     7187 1
    7133     3153     3154 1
    7134     3315     3316 1
    7135     8832     8834 1
    7136     7023     7025 1
    7137     8940     8942 1
    7138     3423     3424 1
    7139     5502     5503 1
    7140     5070     5071 1
    7141     5799     5800 1
    7142     5259     5260 1
    7143      683      684 1
    7144     8364     8365 1
    7145     8526     8527 1
    7146     9282     9283 1
    7147     7527     7528 1
    7148     9444     9445 1
    7149     7632     7633 1
    7150    10062    10063 1
    7151     9900     9901 1
    7152     8226     8227 1
    7153     8064     8065 1
    7154     9549     9550 1
    7155     7794     7795 1
    7156     9981     9982 1
    7157     8145     8146 1
    7158     8187     8188 1
    7159     9186     9187 1
    7160     8349     8350 1
    7161     5601     5603 1
    7162     9927     9929 1
    7163     2157     2156 1
    7164     1972     1971 1
    7165     2376     2377 1
    7166     8205     8206 1
    7167     8583     8584 1
    7168     6828     6829 1
    7169     6990     6991 1
    7170     4104     4105 1
    7171     8451     8453 1
    7172     8640     8642 1
    7173      407      408 1
    7174      222      223 1
    7175      333      334 1
    7176      751      752 1
    7177     2343     2344 1
    7178     7593     7595 1
    7179     8673     8675 1
    7180     9510     9512 1
    7181     1150     1151 1
    7182       15       14 1
    7183     7650     7651 1
    7184     3456     3457 1
    7185      947      948 1
    7186     5211     5212 1
    7187     3618     3619 1
    7188     4455     4456 1
    7189     6534     6535 1
    7190     4023     4024 1
    7191     3294     3295 1
    7192     5562     5563 1
    7193     5940     5941 1
    7194     1846     1847 1
    7195     1809     1810 1
    7196     4245     4247 1
    7197     6270     6272 1
    7198     2814     2816 1
    7199     3867     3869 1
    7200     4569     4571 1
    7201     6324     6326 1
    7202     6108     6110 1
    7203     1177     1178 1
    7204     1943     1944 1
    7205     9447     9449 1
    7206      435      436 1
    7207       54       55 1
    7208      208      209 1
    7209     5364     5366 1
    7210     3636     3638 1
    7211     5451     5453 1
    7212     1163     1164 1
    7213      904      905 1
    7214     8868     8869 1
    7215     6870     6871 1
    7216     8787     8788 1
    7217      953      952 1
    7218      768      767 1
    7219      583      582 1
    7220      546      545 1
    7221     8508     8509 1
    7222     9345     9346 1
    7223     7428     7429 1
    7224     7266     7267 1
    7225    10101    10102 1
    7226      378      363 1
    7227     1412     1413 1
    7228     4485     4486 1
    7229     6321     6322 1
    7230     4242     4243 1
    7231     4323     4324 1
    7232     4296     4298 1
    7233     1572     1573 1
    7234     1646     1647 1
    7235     1794     1795 1
    7236     1831     1832 1
    7237     1757     1758 1
    7238     1068     1069 1
    7239     1720     1721 1
    7240     9249     9251 1
    7241     7764     7766 1
    7242     9087     9089 1
    7243     9843     9845 1
    7244     8088     8090 1
    7245      372      373 1
    7246     6846     6848 1
    7247    10005    10007 1
    7248      483      484 1
    7249     8763     8765 1
    7250      226      211 1
    7251     4473     4475 1
    7252     6309     6311 1
    7253     4311     4313 1
    7254     4230     4232 1
    7255       48       49 1
    7256     3921     3922 1
    7257     6000     6001 1
    7258     6432     6433 1
    7259     2760     2761 1
    7260     4515     4516 1
    7261     4677     4678 1
    7262       85       86 1
    7263     4518     4520 1
    7264     6435     6437 1
    7265     4680     4682 1
    7266     2763     2765 1
    7267     4968     4969 1
    7268     6696     6698 1
    7269     5697     5699 1
    7270     4617     4619 1
    7271     2862     2864 1
    7272     4887     4889 1
    7273     4050     4052 1
    7274     6939     6940 1
    7275     9612     9613 1
    7276     6777     6778 1
    7277     5877     5878 1
    7278     1827     1828 1
    7279     1753     1754 1
    7280     3354     3356 1
    7281     5088     5090 1
    7282       17        2 1
    7283     7929     7931 1
    7284     1069     1070 1
    7285     1032     1033 1
    7286      958      959 1
    7287      847      848 1
    7288      921      922 1
    7289     5016     5017 1
    7290     1519     1520 1
    7291     4014     4015 1
    7292     4176     4177 1
    7293     5931     5932 1
    7294     6561     6562 1
    7295     7965     7967 1
    7296     9882     9884 1
    7297     7425     7427 1
    7298     7344     7346 1
    7299      943      944 1
    7300      829      830 1
    7301     1091     1092 1
    7302     1128     1129 1
    7303     7722     7724 1
    7304     9342     9344 1
    7305     2766     2768 1
    7306     1165     1166 1
    7307     1202     1203 1
    7308     6600     6602 1
    7309     5007     5009 1
    7310     2928     2930 1
    7311     3846     3848 1
    7312     1147     1148 1
    7313     1532     1533 1
    7314      999     1000 1
    7315     2460     2462 1
    7316     6165     6166 1
    7317     4086     4087 1
    7318     4167     4168 1
    7319     1895     1896 1
    7320     2117     2118 1
    7321     5922     5923 1
    7322     6084     6085 1
    7323     2541     2543 1
    7324     4623     4625 1
    7325     2661     2663 1
    7326     2868     2870 1
    7327     6702     6704 1
    7328     5703     5705 1
    7329     8931     8933 1
    7330     7014     7016 1
    7331     6879     6881 1
    7332     8796     8798 1
    7333     8256     8258 1
    7334     1366     1351 1
    7335     9411     9412 1
    7336     9573     9574 1
    7337     9492     9493 1
    7338     1195     1180 1
    7339     7575     7576 1
    7340     8034     8035 1
    7341     8115     8116 1
    7342     7872     7873 1
    7343      360      361 1
    7344     1651     1636 1
    7345     3315     3317 1
    7346     3153     3155 1
    7347     5502     5504 1
    7348     5259     5261 1
    7349     3423     3425 1
    7350     5070     5072 1
    7351     4989     4991 1
    7352     3234     3236 1
    7353     5151     5153 1
    7354     2400     2401 1
    7355     2289     2290 1
    7356     1981     1982 1
    7357     3618     3620 1
    7358     4185     4187 1
    7359     1612     1613 1
    7360     7050     7052 1
    7361     2910     2912 1
    7362     1700     1701 1
    7363     1515     1516 1
    7364     5844     5846 1
    7365     6330     6331 1
    7366     4413     4414 1
    7367     5250     5251 1
    7368      708      709 1
    7369      745      746 1
    7370      298      299 1
    7371      486      487 1
    7372     7263     7265 1
    7373     2001     2002 1
    7374     1927     1928 1
    7375     1964     1965 1
    7376     1240     1241 1
    7377     2112     2113 1
    7378     3321     3322 1
    7379     1277     1278 1
    7380     1879     1880 1
    7381     6366     6367 1
    7382    10047    10049 1
    7383     4287     4288 1
    7384     5637     5638 1
    7385     8049     8051 1
    7386     9723     9725 1
    7387     3720     3721 1
    7388     7887     7889 1
    7389     2802     2803 1
    7390     6042     6043 1
    7391     4959     4961 1
    7392     4797     4799 1
    7393     6687     6689 1
    7394     2853     2855 1
    7395     2880     2882 1
    7396     4608     4610 1
    7397     8436     8438 1
    7398     6897     6899 1
    7399     6714     6716 1
    7400     8976     8978 1
    7401     4320     4321 1
    7402     7200     7201 1
    7403     9360     9361 1
    7404     7281     7282 1
    7405     8307     8308 1
    7406     9117     9118 1
    7407     7377     7378 1
    7408     8970     8971 1
    7409     7053     7054 1
    7410     2508     2510 1
    7411     7503     7505 1
    7412     8421     8423 1
    7413      688      689 1
    7414     9582     9584 1
    7415     7665     7667 1
    7416     9420     9422 1
    7417     2454     2455 1
    7418      533      534 1
    7419     2212     2213 1
    7420     6576     6578 1
    7421     6558     6560 1
    7422     4452     4454 1
    7423     6531     6533 1
    7424     6396     6398 1
@<TRIPOS>SUBSTRUCTURE
       1 RES             1 RESIDUE    0 **** ROOT      0
